* NGSPICE file created from fir_pe.ext - technology: scmos

* Black-box entry subcircuit for FILL abstract view
.subckt FILL vdd gnd
.ends

* Black-box entry subcircuit for NAND2X1 abstract view
.subckt NAND2X1 A B Y vdd gnd
.ends

* Black-box entry subcircuit for DFFPOSX1 abstract view
.subckt DFFPOSX1 D CLK Q vdd gnd
.ends

* Black-box entry subcircuit for NAND3X1 abstract view
.subckt NAND3X1 A B C Y vdd gnd
.ends

* Black-box entry subcircuit for NOR2X1 abstract view
.subckt NOR2X1 A B Y vdd gnd
.ends

* Black-box entry subcircuit for INVX1 abstract view
.subckt INVX1 A Y vdd gnd
.ends

* Black-box entry subcircuit for OAI21X1 abstract view
.subckt OAI21X1 A B C Y vdd gnd
.ends

* Black-box entry subcircuit for AOI22X1 abstract view
.subckt AOI22X1 A B C D Y vdd gnd
.ends

* Black-box entry subcircuit for AOI21X1 abstract view
.subckt AOI21X1 A B C Y vdd gnd
.ends

* Black-box entry subcircuit for BUFX2 abstract view
.subckt BUFX2 A Y vdd gnd
.ends

* Black-box entry subcircuit for XOR2X1 abstract view
.subckt XOR2X1 A B Y vdd gnd
.ends

* Black-box entry subcircuit for OAI22X1 abstract view
.subckt OAI22X1 A B C D Y vdd gnd
.ends

* Black-box entry subcircuit for AND2X2 abstract view
.subckt AND2X2 A B Y vdd gnd
.ends

* Black-box entry subcircuit for OR2X2 abstract view
.subckt OR2X2 A B Y vdd gnd
.ends

* Black-box entry subcircuit for INVX2 abstract view
.subckt INVX2 A Y vdd gnd
.ends

* Black-box entry subcircuit for XNOR2X1 abstract view
.subckt XNOR2X1 A B Y vdd gnd
.ends

* Black-box entry subcircuit for CLKBUF1 abstract view
.subckt CLKBUF1 A Y vdd gnd
.ends

* Black-box entry subcircuit for NOR3X1 abstract view
.subckt NOR3X1 A B C Y vdd gnd
.ends

.subckt fir_pe gnd vdd Cin[7] Cin[6] Cin[5] Cin[4] Cin[3] Cin[2] Cin[1] Cin[0] Xin[7]
+ Xin[6] Xin[5] Xin[4] Xin[3] Xin[2] Xin[1] Xin[0] Xout[7] Xout[6] Xout[5] Xout[4]
+ Xout[3] Xout[2] Xout[1] Xout[0] Yin[15] Yin[14] Yin[13] Yin[12] Yin[11] Yin[10]
+ Yin[9] Yin[8] Yin[7] Yin[6] Yin[5] Yin[4] Yin[3] Yin[2] Yin[1] Yin[0] Yout[15] Yout[14]
+ Yout[13] Yout[12] Yout[11] Yout[10] Yout[9] Yout[8] Yout[7] Yout[6] Yout[5] Yout[4]
+ Yout[3] Yout[2] Yout[1] Yout[0] clk
XFILL_3__1468_ vdd gnd FILL
XFILL_1__1104_ vdd gnd FILL
XFILL_2__992_ vdd gnd FILL
XFILL_3__1399_ vdd gnd FILL
XFILL_1__1035_ vdd gnd FILL
XFILL_2__1213_ vdd gnd FILL
XFILL_0__815_ vdd gnd FILL
XFILL_2__1144_ vdd gnd FILL
XFILL_2__1075_ vdd gnd FILL
XFILL_3__888_ vdd gnd FILL
XFILL_3__957_ vdd gnd FILL
X_1270_ _1301_/B _1280_/B _1303_/B vdd gnd NAND2X1
XFILL_3__1322_ vdd gnd FILL
XFILL_0__1475_ vdd gnd FILL
XFILL_3__1253_ vdd gnd FILL
XFILL_3__1184_ vdd gnd FILL
X_1537_ _1553_/Q _1551_/CLK _1583_/A vdd gnd DFFPOSX1
X_1399_ _1428_/B _1399_/B _1399_/C _1430_/A vdd gnd NAND3X1
X_1468_ _1468_/A _1470_/B _1507_/C vdd gnd NOR2X1
XFILL_2__975_ vdd gnd FILL
XFILL_3__811_ vdd gnd FILL
X_981_ _986_/A _987_/C vdd gnd INVX1
XFILL_1__1018_ vdd gnd FILL
XFILL88350x54750 vdd gnd FILL
XFILL_0__1260_ vdd gnd FILL
XFILL_2__1127_ vdd gnd FILL
XFILL_2__1058_ vdd gnd FILL
XFILL_0__1191_ vdd gnd FILL
XFILL_1__993_ vdd gnd FILL
X_1322_ _1326_/A _1326_/B _1325_/C _1323_/C vdd gnd OAI21X1
X_1253_ Xin[7] _1468_/A vdd gnd INVX1
XFILL_3__1236_ vdd gnd FILL
XFILL_3__1305_ vdd gnd FILL
X_1184_ _1188_/A _1188_/B _1248_/C _1266_/B _1195_/B vdd gnd AOI22X1
XFILL_2__760_ vdd gnd FILL
XFILL_3__1098_ vdd gnd FILL
XFILL_0__1458_ vdd gnd FILL
XFILL_0__1389_ vdd gnd FILL
XFILL_3__1167_ vdd gnd FILL
XFILL_4__1345_ vdd gnd FILL
XFILL_4__1414_ vdd gnd FILL
XFILL_1__1567_ vdd gnd FILL
XFILL_4__1276_ vdd gnd FILL
XFILL_1__1498_ vdd gnd FILL
XFILL_2__889_ vdd gnd FILL
XFILL_2__958_ vdd gnd FILL
X_964_ _964_/A _964_/B _964_/C _966_/B vdd gnd OAI21X1
X_895_ _895_/A _965_/A vdd gnd INVX1
XFILL_3__1021_ vdd gnd FILL
XFILL_0__1174_ vdd gnd FILL
XFILL_0__1312_ vdd gnd FILL
XFILL_0__1243_ vdd gnd FILL
XFILL_1__976_ vdd gnd FILL
X_1236_ _1243_/A _1243_/C _1244_/C _1301_/A vdd gnd NAND3X1
X_1305_ _1305_/A Cin[7] _1371_/A vdd gnd NAND2X1
X_1098_ _1125_/B _1098_/B _1128_/A vdd gnd NAND2X1
XFILL_3__1219_ vdd gnd FILL
XFILL_1__1352_ vdd gnd FILL
XFILL_1__1421_ vdd gnd FILL
XFILL_1__1283_ vdd gnd FILL
X_1167_ Cin[3] _1249_/A _1234_/B _1169_/B vdd gnd NAND3X1
XFILL_2__812_ vdd gnd FILL
XFILL_2__1461_ vdd gnd FILL
XFILL_2__1392_ vdd gnd FILL
XFILL_0__994_ vdd gnd FILL
XFILL88350x78150 vdd gnd FILL
X_947_ _947_/A _947_/B _947_/C _948_/B vdd gnd AOI21X1
XFILL_1__830_ vdd gnd FILL
X_878_ _878_/A _878_/B _878_/C _884_/B vdd gnd AOI21X1
XFILL_1__761_ vdd gnd FILL
XFILL_3__1570_ vdd gnd FILL
XFILL_4__972_ vdd gnd FILL
X_1021_ _1121_/B _1122_/D _1119_/A vdd gnd NAND2X1
XFILL_3__1004_ vdd gnd FILL
XFILL_0__1157_ vdd gnd FILL
XFILL_0__1226_ vdd gnd FILL
XFILL_0__1088_ vdd gnd FILL
XFILL_1__959_ vdd gnd FILL
X_1219_ _1219_/A _1219_/B _1300_/A vdd gnd NAND2X1
XFILL_1__1404_ vdd gnd FILL
XFILL_1__1335_ vdd gnd FILL
XFILL_1__1266_ vdd gnd FILL
XFILL_3__990_ vdd gnd FILL
XFILL_1__1197_ vdd gnd FILL
X_801_ _886_/A _965_/B _888_/A _823_/C vdd gnd OAI21X1
XFILL_2__1513_ vdd gnd FILL
XFILL_2__1375_ vdd gnd FILL
XFILL_2__1444_ vdd gnd FILL
XFILL_0__977_ vdd gnd FILL
XFILL_0__1011_ vdd gnd FILL
X_1570_ _1570_/A Yout[10] vdd gnd BUFX2
XFILL_1__813_ vdd gnd FILL
XFILL_3__1484_ vdd gnd FILL
X_1004_ _997_/Y _998_/Y _999_/Y _1022_/A vdd gnd NAND3X1
XFILL_1__1120_ vdd gnd FILL
XFILL_0__1209_ vdd gnd FILL
XFILL_1__1051_ vdd gnd FILL
XFILL_2__1160_ vdd gnd FILL
XFILL_0__831_ vdd gnd FILL
XFILL_0__900_ vdd gnd FILL
XFILL_0__762_ vdd gnd FILL
XFILL_2__1091_ vdd gnd FILL
XFILL_1__1249_ vdd gnd FILL
XFILL_1__1318_ vdd gnd FILL
XFILL_3__973_ vdd gnd FILL
XFILL_0__1560_ vdd gnd FILL
XFILL_2__1289_ vdd gnd FILL
XFILL_0__1491_ vdd gnd FILL
XFILL_2__1427_ vdd gnd FILL
XFILL_2__1358_ vdd gnd FILL
XFILL_1_CLKBUF1_insert0 vdd gnd FILL
X_1553_ _1553_/D _1557_/CLK _1553_/Q vdd gnd DFFPOSX1
XFILL_2_BUFX2_insert14 vdd gnd FILL
X_1484_ _1484_/A _1486_/C _1557_/D vdd gnd XOR2X1
XFILL_3__1467_ vdd gnd FILL
XFILL_3__1398_ vdd gnd FILL
XFILL_1__1103_ vdd gnd FILL
XFILL_2__991_ vdd gnd FILL
XFILL_1__1034_ vdd gnd FILL
XFILL_2__1143_ vdd gnd FILL
XFILL_2__1212_ vdd gnd FILL
XFILL_0__814_ vdd gnd FILL
XFILL_2__1074_ vdd gnd FILL
XFILL_3__956_ vdd gnd FILL
XFILL_3__887_ vdd gnd FILL
XFILL_3__1252_ vdd gnd FILL
XFILL_3__1321_ vdd gnd FILL
XFILL_0__1474_ vdd gnd FILL
XFILL_3__1183_ vdd gnd FILL
X_1536_ _1552_/Q _1552_/CLK _1582_/A vdd gnd DFFPOSX1
XFILL_1__1583_ vdd gnd FILL
X_1467_ _1492_/B _1507_/B vdd gnd INVX1
X_1398_ _1402_/C _1399_/C vdd gnd INVX1
XFILL_3__1519_ vdd gnd FILL
XFILL_2__974_ vdd gnd FILL
XFILL_1__1017_ vdd gnd FILL
XFILL_3__810_ vdd gnd FILL
X_980_ _987_/A _987_/B _986_/A _994_/B vdd gnd OAI21X1
XFILL_2__1126_ vdd gnd FILL
XFILL_0__1190_ vdd gnd FILL
XFILL_2__1057_ vdd gnd FILL
XFILL_3__939_ vdd gnd FILL
XFILL_1__992_ vdd gnd FILL
X_1252_ _1336_/A _1320_/B _1316_/C vdd gnd NAND2X1
X_1321_ _1321_/A _1321_/B _1321_/C _1325_/C vdd gnd AOI21X1
XFILL_3__1235_ vdd gnd FILL
XFILL_0__1457_ vdd gnd FILL
X_1183_ _1265_/A _1265_/B _1265_/C _1266_/B vdd gnd NAND3X1
XFILL_3__1304_ vdd gnd FILL
XFILL_3__1097_ vdd gnd FILL
XFILL_0__1388_ vdd gnd FILL
XFILL_3__1166_ vdd gnd FILL
X_1519_ _1519_/A _941_/C _1548_/D vdd gnd XOR2X1
XFILL_1__1566_ vdd gnd FILL
XFILL_2__957_ vdd gnd FILL
XFILL_1__1497_ vdd gnd FILL
XFILL_2__888_ vdd gnd FILL
XFILL88950x15750 vdd gnd FILL
X_963_ _963_/A _963_/B _963_/C _992_/B vdd gnd NAND3X1
X_894_ _894_/A _964_/C _897_/C vdd gnd NAND2X1
XFILL_3__1020_ vdd gnd FILL
XFILL_0__1311_ vdd gnd FILL
XFILL_2__1109_ vdd gnd FILL
XFILL_0__1242_ vdd gnd FILL
XFILL_0__1173_ vdd gnd FILL
XFILL_1__975_ vdd gnd FILL
X_1235_ _1235_/A _1235_/B _1235_/C _1244_/C vdd gnd OAI21X1
XFILL_1__1420_ vdd gnd FILL
X_1304_ _1304_/A _1304_/B _1304_/C _1324_/A vdd gnd OAI21X1
X_1166_ Cin[2] Xin[6] _1234_/B vdd gnd NAND2X1
XFILL_2__811_ vdd gnd FILL
X_1097_ _1198_/A _1199_/B _1199_/A _1208_/A vdd gnd NAND3X1
XFILL_3__1149_ vdd gnd FILL
XFILL_3__1218_ vdd gnd FILL
XFILL_4__1060_ vdd gnd FILL
XFILL_1__1351_ vdd gnd FILL
XFILL_0__1509_ vdd gnd FILL
XFILL_1__1282_ vdd gnd FILL
XFILL_2__1460_ vdd gnd FILL
XFILL_2__1391_ vdd gnd FILL
XFILL_4__1327_ vdd gnd FILL
XFILL_4__1258_ vdd gnd FILL
XFILL_0__993_ vdd gnd FILL
XFILL_4__1189_ vdd gnd FILL
XFILL88950x27450 vdd gnd FILL
X_1020_ _1020_/A _1020_/B _1550_/D vdd gnd NOR2X1
X_877_ _877_/A _877_/B _877_/C _877_/D _936_/C vdd gnd AOI22X1
X_946_ _951_/A _946_/B _946_/Y vdd gnd NAND2X1
XFILL_1__760_ vdd gnd FILL
XFILL_3__1003_ vdd gnd FILL
XFILL_0__1087_ vdd gnd FILL
XFILL_0__1156_ vdd gnd FILL
XFILL_0__1225_ vdd gnd FILL
XFILL_1__889_ vdd gnd FILL
X_1149_ _965_/C _1149_/B _1149_/C _1149_/D _1153_/B vdd gnd AOI22X1
XFILL_1__958_ vdd gnd FILL
X_1218_ _1218_/A _1218_/B _1288_/A _1287_/A vdd gnd OAI21X1
XFILL_1__1403_ vdd gnd FILL
XFILL_1__1196_ vdd gnd FILL
XFILL_1__1334_ vdd gnd FILL
XFILL_1__1265_ vdd gnd FILL
X_800_ Xin[1] Cin[2] _888_/A vdd gnd NAND2X1
XFILL88950x39150 vdd gnd FILL
XFILL_2__1512_ vdd gnd FILL
XFILL_2__1374_ vdd gnd FILL
XFILL_2__1443_ vdd gnd FILL
XFILL_0__976_ vdd gnd FILL
XFILL_0__1010_ vdd gnd FILL
XFILL_1__812_ vdd gnd FILL
X_1003_ _938_/C _938_/A _1003_/C _1010_/C vdd gnd AOI21X1
X_929_ _938_/C _948_/C _938_/A _935_/A vdd gnd NAND3X1
XFILL_3__1483_ vdd gnd FILL
XFILL_1__1050_ vdd gnd FILL
XFILL_0__1208_ vdd gnd FILL
XFILL_0__1139_ vdd gnd FILL
XFILL_1__1317_ vdd gnd FILL
XFILL_0__830_ vdd gnd FILL
XFILL_0__761_ vdd gnd FILL
XFILL_2__1090_ vdd gnd FILL
XFILL_1__1248_ vdd gnd FILL
XFILL_1__1179_ vdd gnd FILL
XFILL_3__972_ vdd gnd FILL
XFILL_0__1490_ vdd gnd FILL
XFILL_2__1426_ vdd gnd FILL
XFILL_1_CLKBUF1_insert1 vdd gnd FILL
XFILL_2__1288_ vdd gnd FILL
XFILL_2__1357_ vdd gnd FILL
XFILL_2_BUFX2_insert15 vdd gnd FILL
XFILL_0__959_ vdd gnd FILL
X_1552_ _1552_/D _1552_/CLK _1552_/Q vdd gnd DFFPOSX1
X_1483_ _1488_/B _1488_/A _1486_/C vdd gnd XOR2X1
XFILL_2__990_ vdd gnd FILL
XFILL_3__1466_ vdd gnd FILL
XFILL_3__1397_ vdd gnd FILL
XFILL_1__1102_ vdd gnd FILL
XFILL_1__1033_ vdd gnd FILL
XFILL_4__1009_ vdd gnd FILL
XFILL_2__1142_ vdd gnd FILL
XFILL_2__1211_ vdd gnd FILL
XFILL_2__1073_ vdd gnd FILL
XFILL_0__813_ vdd gnd FILL
XFILL_3__955_ vdd gnd FILL
XFILL_3__886_ vdd gnd FILL
XFILL_2__1409_ vdd gnd FILL
XFILL_0__1473_ vdd gnd FILL
XFILL_3__1320_ vdd gnd FILL
XFILL_3__1251_ vdd gnd FILL
XFILL_3__1182_ vdd gnd FILL
X_1535_ _1551_/Q _1551_/CLK _1581_/A vdd gnd DFFPOSX1
XFILL_3__1518_ vdd gnd FILL
X_1466_ _1466_/A _1470_/C _1466_/C _1466_/D _1497_/A vdd gnd OAI22X1
XFILL_1__1582_ vdd gnd FILL
X_1397_ _1397_/A _1430_/B _1402_/C vdd gnd NAND2X1
XFILL_2__973_ vdd gnd FILL
XFILL_3__1449_ vdd gnd FILL
XFILL_1__1016_ vdd gnd FILL
XFILL_2__1056_ vdd gnd FILL
XFILL_2__1125_ vdd gnd FILL
X_1320_ _1336_/A _1320_/B _1321_/C vdd gnd AND2X2
XFILL_1__991_ vdd gnd FILL
XFILL_3__938_ vdd gnd FILL
XFILL_3__869_ vdd gnd FILL
X_1251_ Cin[2] Xin[7] _1320_/B vdd gnd AND2X2
X_1182_ _1259_/A _1182_/B _1265_/C vdd gnd NAND2X1
XFILL_3__1303_ vdd gnd FILL
XFILL_0__1456_ vdd gnd FILL
XFILL_3__1165_ vdd gnd FILL
XFILL_3__1234_ vdd gnd FILL
XFILL_3__1096_ vdd gnd FILL
XFILL_0__1387_ vdd gnd FILL
X_1518_ _828_/A _828_/B _833_/A _1519_/A vdd gnd OAI21X1
X_1449_ _1449_/A _1481_/A _1449_/C _1450_/A vdd gnd OAI21X1
XFILL_1__1565_ vdd gnd FILL
XFILL_1__1496_ vdd gnd FILL
XFILL_2__956_ vdd gnd FILL
XFILL_2__887_ vdd gnd FILL
X_962_ _964_/A _964_/B _962_/C _963_/A vdd gnd OAI21X1
X_893_ _895_/A Cin[3] _964_/C vdd gnd AND2X2
XFILL_0__1310_ vdd gnd FILL
XFILL_0__1241_ vdd gnd FILL
XFILL_2__1108_ vdd gnd FILL
XFILL_2__1039_ vdd gnd FILL
XFILL_0__1172_ vdd gnd FILL
XFILL_1__974_ vdd gnd FILL
X_1303_ _1303_/A _1303_/B _1303_/C _1413_/C vdd gnd OAI21X1
X_1096_ _1099_/B _1099_/A _1100_/C _1199_/B vdd gnd OAI21X1
XFILL_1__1350_ vdd gnd FILL
X_1165_ _1239_/C _1239_/D _1235_/C _1188_/A vdd gnd NAND3X1
X_1234_ _1234_/A _1234_/B _1235_/B vdd gnd AND2X2
XFILL_2__810_ vdd gnd FILL
XFILL_3__1148_ vdd gnd FILL
XFILL_3__1217_ vdd gnd FILL
XFILL_0__1439_ vdd gnd FILL
XFILL_0__1508_ vdd gnd FILL
XFILL_1__1281_ vdd gnd FILL
XFILL_3__1079_ vdd gnd FILL
XFILL89250x74250 vdd gnd FILL
XFILL_1__1479_ vdd gnd FILL
XFILL_2__1390_ vdd gnd FILL
XFILL_2__939_ vdd gnd FILL
XFILL_0__992_ vdd gnd FILL
X_945_ _945_/A _945_/B _945_/C _945_/Y vdd gnd OAI21X1
X_876_ _936_/B _884_/C _936_/A _882_/A vdd gnd NAND3X1
XFILL_3__1002_ vdd gnd FILL
XFILL_0__1224_ vdd gnd FILL
XFILL_0__1086_ vdd gnd FILL
XFILL_0__1155_ vdd gnd FILL
XFILL_1__957_ vdd gnd FILL
XFILL_1__888_ vdd gnd FILL
X_1148_ _1234_/A _1149_/B vdd gnd INVX1
X_1079_ _1171_/A Xin[7] _1079_/C _1083_/A vdd gnd NAND3X1
X_1217_ _1217_/A _1217_/B _1217_/C _1218_/B vdd gnd AOI21X1
XFILL_1__1402_ vdd gnd FILL
XFILL_1__1333_ vdd gnd FILL
XFILL_1__1195_ vdd gnd FILL
XFILL_1__1264_ vdd gnd FILL
XFILL_2__1442_ vdd gnd FILL
XFILL_2__1511_ vdd gnd FILL
XFILL_2__1373_ vdd gnd FILL
XFILL_4__1309_ vdd gnd FILL
XFILL_0__975_ vdd gnd FILL
XFILL_1__811_ vdd gnd FILL
X_928_ _932_/A _932_/B _933_/C _938_/A vdd gnd OAI21X1
X_1002_ _948_/C _1003_/C vdd gnd INVX1
XFILL_4__953_ vdd gnd FILL
X_859_ Xin[1] _860_/A vdd gnd INVX1
XFILL_3__1482_ vdd gnd FILL
XFILL_4__884_ vdd gnd FILL
XFILL_0__1207_ vdd gnd FILL
XFILL88950x150 vdd gnd FILL
XFILL_0__1069_ vdd gnd FILL
XFILL_0__1138_ vdd gnd FILL
XFILL_1__1316_ vdd gnd FILL
XFILL_0__760_ vdd gnd FILL
XFILL_1__1247_ vdd gnd FILL
XFILL_1__1178_ vdd gnd FILL
XFILL_3__971_ vdd gnd FILL
XFILL_2__1425_ vdd gnd FILL
XFILL_2__1356_ vdd gnd FILL
XFILL_1_CLKBUF1_insert2 vdd gnd FILL
XFILL_0__958_ vdd gnd FILL
XFILL_2__1287_ vdd gnd FILL
X_1551_ _1551_/D _1551_/CLK _1551_/Q vdd gnd DFFPOSX1
XFILL_0__889_ vdd gnd FILL
XFILL_2_BUFX2_insert16 vdd gnd FILL
X_1482_ _1490_/A _1482_/B _1488_/B vdd gnd NAND2X1
XFILL_3__1465_ vdd gnd FILL
XFILL_1__1101_ vdd gnd FILL
XFILL_3__1396_ vdd gnd FILL
XFILL_1__1032_ vdd gnd FILL
XFILL_4__1574_ vdd gnd FILL
XFILL_2__1210_ vdd gnd FILL
XFILL_0__812_ vdd gnd FILL
XFILL_2__1141_ vdd gnd FILL
XFILL_2__1072_ vdd gnd FILL
XFILL_3__954_ vdd gnd FILL
XFILL_3__885_ vdd gnd FILL
XFILL_3__1181_ vdd gnd FILL
XFILL_2__1339_ vdd gnd FILL
XFILL_2__1408_ vdd gnd FILL
XFILL_3__1250_ vdd gnd FILL
XFILL_0__1472_ vdd gnd FILL
X_1534_ _1550_/Q _1551_/CLK _1580_/A vdd gnd DFFPOSX1
X_1465_ _1465_/A _1465_/B _1465_/C _1488_/A vdd gnd AOI21X1
XFILL_1__1581_ vdd gnd FILL
X_1396_ _1396_/A _1396_/B _1430_/B vdd gnd OR2X2
XFILL_3__1448_ vdd gnd FILL
XFILL_3__1517_ vdd gnd FILL
XFILL_4__1290_ vdd gnd FILL
XFILL_2__972_ vdd gnd FILL
XFILL_3__1379_ vdd gnd FILL
XFILL_1__1015_ vdd gnd FILL
XFILL_4__1488_ vdd gnd FILL
XFILL_2__1055_ vdd gnd FILL
XFILL_2__1124_ vdd gnd FILL
XFILL_1__990_ vdd gnd FILL
X_1181_ _1181_/A _1182_/B vdd gnd INVX1
XFILL_3__937_ vdd gnd FILL
XFILL_3__868_ vdd gnd FILL
XFILL_3__1302_ vdd gnd FILL
X_1250_ _1316_/A _1321_/A vdd gnd INVX1
XFILL_3__799_ vdd gnd FILL
XFILL_3__1095_ vdd gnd FILL
XFILL_3__1233_ vdd gnd FILL
XFILL_0__1455_ vdd gnd FILL
XFILL_0__1386_ vdd gnd FILL
XFILL_3__1164_ vdd gnd FILL
X_1448_ _1448_/A _1448_/B _1478_/C vdd gnd NAND2X1
X_1517_ _1517_/A _1517_/B _1559_/D vdd gnd NAND2X1
XFILL89550x46950 vdd gnd FILL
XFILL_1__1564_ vdd gnd FILL
XFILL_1__1495_ vdd gnd FILL
X_1379_ Xin[4] Cin[7] _1431_/A vdd gnd NAND2X1
XFILL_2__955_ vdd gnd FILL
XFILL_2__886_ vdd gnd FILL
X_961_ _961_/A Cin[3] _962_/C vdd gnd NAND2X1
X_892_ _901_/A _897_/A vdd gnd INVX1
XFILL_0__1240_ vdd gnd FILL
XFILL_2__1107_ vdd gnd FILL
XFILL_2__1038_ vdd gnd FILL
XFILL_0__1171_ vdd gnd FILL
XFILL_1__973_ vdd gnd FILL
X_1233_ _1237_/C _1237_/B _1304_/C _1243_/A vdd gnd NAND3X1
X_1302_ _1366_/A _1414_/A vdd gnd INVX1
X_1095_ _1095_/A _1095_/B _1187_/B _1186_/A _1099_/A vdd gnd AOI22X1
XFILL_1__1280_ vdd gnd FILL
XFILL_0__1507_ vdd gnd FILL
X_1164_ _964_/A _1470_/A _1234_/A _1239_/C vdd gnd OAI21X1
XFILL_3__1078_ vdd gnd FILL
XFILL_3__1216_ vdd gnd FILL
XFILL_3__1147_ vdd gnd FILL
XFILL_0__1369_ vdd gnd FILL
XFILL_0__1438_ vdd gnd FILL
XFILL89550x58650 vdd gnd FILL
XFILL_0__991_ vdd gnd FILL
XFILL_1__1478_ vdd gnd FILL
XFILL_2__938_ vdd gnd FILL
XFILL_2__869_ vdd gnd FILL
X_944_ _944_/A _945_/A _944_/Y vdd gnd XOR2X1
X_875_ _877_/C _877_/D _875_/C _936_/A vdd gnd NAND3X1
XFILL_3__1001_ vdd gnd FILL
XFILL_0__1154_ vdd gnd FILL
XFILL_0__1223_ vdd gnd FILL
XFILL_0__1085_ vdd gnd FILL
XFILL_1__956_ vdd gnd FILL
XFILL_1__887_ vdd gnd FILL
X_1216_ _1297_/A _1216_/B _1296_/A _1294_/A vdd gnd OAI21X1
XFILL_4__1110_ vdd gnd FILL
XFILL_4__1041_ vdd gnd FILL
X_1078_ Yin[7] _1078_/B _1083_/B vdd gnd NAND2X1
X_1147_ Cin[3] _1249_/A _1234_/A vdd gnd NAND2X1
XFILL_1__1401_ vdd gnd FILL
XFILL_1__1263_ vdd gnd FILL
XFILL_1__1332_ vdd gnd FILL
XFILL_1__1194_ vdd gnd FILL
XFILL_2__1441_ vdd gnd FILL
XFILL_2__1510_ vdd gnd FILL
XFILL_2__1372_ vdd gnd FILL
XFILL_0__974_ vdd gnd FILL
XFILL_4__1239_ vdd gnd FILL
XFILL_1__810_ vdd gnd FILL
X_927_ _952_/C _927_/B _991_/B _990_/A _932_/A vdd gnd AOI22X1
X_858_ _868_/A _867_/B vdd gnd INVX1
XFILL_3__1481_ vdd gnd FILL
X_1001_ _1010_/B _996_/Y _948_/Y _1015_/B vdd gnd OAI21X1
X_789_ _803_/B _797_/C _789_/C _795_/A vdd gnd NAND3X1
XFILL_0__1206_ vdd gnd FILL
XFILL_0__1137_ vdd gnd FILL
XFILL_0__1068_ vdd gnd FILL
XFILL_1__939_ vdd gnd FILL
XFILL_1__1246_ vdd gnd FILL
XFILL_1__1315_ vdd gnd FILL
XFILL_1__1177_ vdd gnd FILL
XFILL_3__970_ vdd gnd FILL
XFILL_2__1424_ vdd gnd FILL
XFILL_2__1355_ vdd gnd FILL
XFILL_0__957_ vdd gnd FILL
XFILL_1_CLKBUF1_insert3 vdd gnd FILL
XFILL_2__1286_ vdd gnd FILL
XFILL_2_BUFX2_insert17 vdd gnd FILL
X_1550_ _1550_/D _1551_/CLK _1550_/Q vdd gnd DFFPOSX1
XFILL_0__888_ vdd gnd FILL
X_1481_ _1481_/A _1481_/B _1481_/C _1490_/A vdd gnd NAND3X1
XFILL_3__1464_ vdd gnd FILL
XFILL_4__866_ vdd gnd FILL
XFILL_4__935_ vdd gnd FILL
XFILL_1__1100_ vdd gnd FILL
XFILL_3__1395_ vdd gnd FILL
XFILL_4__797_ vdd gnd FILL
XFILL_1__1031_ vdd gnd FILL
XFILL_2__1140_ vdd gnd FILL
XFILL_0__811_ vdd gnd FILL
XFILL_2__1071_ vdd gnd FILL
XFILL_1__1229_ vdd gnd FILL
XFILL_3__953_ vdd gnd FILL
XFILL88350x74250 vdd gnd FILL
XFILL_3__884_ vdd gnd FILL
XFILL_2__1338_ vdd gnd FILL
XFILL_2__1407_ vdd gnd FILL
XFILL_2__1269_ vdd gnd FILL
XFILL_3__1180_ vdd gnd FILL
XFILL_0__1471_ vdd gnd FILL
X_1533_ _1549_/Q _1549_/CLK _1579_/A vdd gnd DFFPOSX1
X_1395_ _1396_/B _1396_/A _1397_/A vdd gnd NAND2X1
X_1464_ _1464_/A _1464_/B _1488_/C _1484_/A vdd gnd OAI21X1
XFILL_1__1580_ vdd gnd FILL
XFILL_3__1447_ vdd gnd FILL
XFILL_3__1516_ vdd gnd FILL
XFILL_3__1378_ vdd gnd FILL
XFILL_2__971_ vdd gnd FILL
XFILL_1__1014_ vdd gnd FILL
XFILL_2__1123_ vdd gnd FILL
XFILL_2__1054_ vdd gnd FILL
XFILL_3__936_ vdd gnd FILL
XFILL_3__798_ vdd gnd FILL
XFILL_3__867_ vdd gnd FILL
XFILL_3__1232_ vdd gnd FILL
X_1180_ _1247_/A _1247_/B _1248_/C vdd gnd NAND2X1
XFILL_3__1301_ vdd gnd FILL
XFILL_3__1094_ vdd gnd FILL
XFILL_0__1454_ vdd gnd FILL
XFILL_0__1385_ vdd gnd FILL
XFILL_3__1163_ vdd gnd FILL
X_1516_ _1516_/A _1516_/B _1516_/C _1517_/A vdd gnd NAND3X1
XFILL_4__1341_ vdd gnd FILL
XFILL_4__1410_ vdd gnd FILL
X_1447_ _1449_/C _1448_/A vdd gnd INVX1
X_1378_ _964_/B _1470_/B _1431_/B _1391_/B vdd gnd OAI21X1
XFILL_1__1563_ vdd gnd FILL
XFILL_4__1272_ vdd gnd FILL
XFILL_1__1494_ vdd gnd FILL
XFILL_2__954_ vdd gnd FILL
XFILL_2__885_ vdd gnd FILL
X_891_ Xin[1] Cin[4] _901_/A vdd gnd NAND2X1
X_960_ Xin[4] _964_/B vdd gnd INVX2
XFILL_2__1106_ vdd gnd FILL
XFILL_0__1170_ vdd gnd FILL
XFILL_2__1037_ vdd gnd FILL
XFILL88350x4050 vdd gnd FILL
XFILL_1__972_ vdd gnd FILL
XFILL_3__919_ vdd gnd FILL
X_1232_ _1232_/A _1312_/A _1304_/C vdd gnd NAND2X1
X_1301_ _1301_/A _1301_/B _1366_/A vdd gnd NAND2X1
X_1094_ _1094_/A _1094_/B _1158_/B _1099_/B vdd gnd AOI21X1
XFILL_3__1215_ vdd gnd FILL
XFILL_0__1437_ vdd gnd FILL
XFILL_0__1506_ vdd gnd FILL
X_1163_ Xin[6] _1470_/A vdd gnd INVX1
XFILL_3__1077_ vdd gnd FILL
XFILL_3__1146_ vdd gnd FILL
XFILL_0__1368_ vdd gnd FILL
XFILL_0__1299_ vdd gnd FILL
XFILL_0__990_ vdd gnd FILL
XFILL_2__937_ vdd gnd FILL
XFILL_1__1477_ vdd gnd FILL
XFILL_2__868_ vdd gnd FILL
XFILL_2__799_ vdd gnd FILL
X_943_ _945_/C _943_/B _944_/A vdd gnd NAND2X1
X_874_ _890_/C _890_/A _925_/A _877_/D vdd gnd NAND3X1
XFILL_3__1000_ vdd gnd FILL
XFILL_0__1153_ vdd gnd FILL
XFILL_0__1084_ vdd gnd FILL
XFILL_0__1222_ vdd gnd FILL
XFILL_1__955_ vdd gnd FILL
XFILL_1__886_ vdd gnd FILL
X_1146_ _1242_/B _1146_/B _1146_/C _1154_/A vdd gnd AOI21X1
X_1215_ _1422_/B _1216_/B vdd gnd INVX1
XFILL_1__1400_ vdd gnd FILL
XFILL_3__1129_ vdd gnd FILL
X_1077_ _1265_/A _1084_/C _1084_/A _1265_/B vdd gnd NAND3X1
XFILL_1__1193_ vdd gnd FILL
XFILL_1__1262_ vdd gnd FILL
XFILL_1__1331_ vdd gnd FILL
XFILL_2__1440_ vdd gnd FILL
XFILL_2__1371_ vdd gnd FILL
XFILL_0__973_ vdd gnd FILL
X_926_ _926_/A _926_/B _955_/A _932_/B vdd gnd AOI21X1
X_1000_ _999_/Y _998_/Y _997_/Y _1010_/B vdd gnd AOI21X1
X_788_ _797_/B _789_/C vdd gnd INVX1
X_857_ _868_/A _867_/A _867_/C _863_/A vdd gnd NAND3X1
XFILL_3__1480_ vdd gnd FILL
XFILL_2__1569_ vdd gnd FILL
XFILL_0__1067_ vdd gnd FILL
XFILL_0__1136_ vdd gnd FILL
XFILL_0__1205_ vdd gnd FILL
XFILL_1__938_ vdd gnd FILL
XFILL_1__869_ vdd gnd FILL
X_1129_ _1129_/A _1223_/A _1152_/A _1151_/A vdd gnd OAI21X1
XFILL_4__1023_ vdd gnd FILL
XFILL_1__1245_ vdd gnd FILL
XFILL_1__1314_ vdd gnd FILL
XFILL_1__1176_ vdd gnd FILL
XFILL_2__1354_ vdd gnd FILL
XFILL_2__1423_ vdd gnd FILL
XFILL_2__1285_ vdd gnd FILL
XFILL_0__956_ vdd gnd FILL
XFILL_0__887_ vdd gnd FILL
XFILL_1_CLKBUF1_insert4 vdd gnd FILL
X_1480_ _1480_/A _1480_/B _1481_/C vdd gnd NAND2X1
X_909_ _912_/C _911_/B _917_/A vdd gnd NAND2X1
XFILL_3__1394_ vdd gnd FILL
XFILL_3__1463_ vdd gnd FILL
XFILL_1__1030_ vdd gnd FILL
XFILL_0__1119_ vdd gnd FILL
XFILL_0__810_ vdd gnd FILL
XFILL_2__1070_ vdd gnd FILL
XFILL_1__1159_ vdd gnd FILL
XFILL_1__1228_ vdd gnd FILL
XFILL88950x23550 vdd gnd FILL
XFILL_3__883_ vdd gnd FILL
XFILL_3__952_ vdd gnd FILL
XFILL88650x58650 vdd gnd FILL
XFILL_2__1406_ vdd gnd FILL
XFILL_0__1470_ vdd gnd FILL
XFILL_4_BUFX2_insert8 vdd gnd FILL
XFILL_2__1268_ vdd gnd FILL
XFILL_2__1337_ vdd gnd FILL
X_1532_ _1548_/Q _1549_/CLK _1578_/A vdd gnd DFFPOSX1
XFILL_0__939_ vdd gnd FILL
XFILL_2__1199_ vdd gnd FILL
X_1394_ _1443_/B Yin[11] _1396_/B vdd gnd XNOR2X1
X_1463_ _1489_/C _1464_/B vdd gnd INVX1
XFILL_3__1515_ vdd gnd FILL
XFILL_2__970_ vdd gnd FILL
XFILL_3__1446_ vdd gnd FILL
XFILL_3__1377_ vdd gnd FILL
XFILL_4__917_ vdd gnd FILL
XFILL_4__848_ vdd gnd FILL
XFILL_1__1013_ vdd gnd FILL
XFILL_2__1122_ vdd gnd FILL
XFILL_2__1053_ vdd gnd FILL
XFILL88950x35250 vdd gnd FILL
XFILL_3__866_ vdd gnd FILL
XFILL_3__935_ vdd gnd FILL
XFILL_3__797_ vdd gnd FILL
XFILL_3__1231_ vdd gnd FILL
XFILL_0__1453_ vdd gnd FILL
XFILL_3__1300_ vdd gnd FILL
XFILL_3__1162_ vdd gnd FILL
XFILL_3__1093_ vdd gnd FILL
XFILL_0__1384_ vdd gnd FILL
X_1515_ _1515_/A _1516_/B vdd gnd INVX1
XFILL_1__1562_ vdd gnd FILL
X_1446_ _1446_/A _1476_/A _1449_/C vdd gnd NAND2X1
X_1377_ _1381_/A _1492_/B _1386_/B _1431_/B vdd gnd OAI21X1
XFILL_2__953_ vdd gnd FILL
XFILL_3__1429_ vdd gnd FILL
XFILL_1__1493_ vdd gnd FILL
XFILL_2__884_ vdd gnd FILL
X_890_ _890_/A _890_/B _890_/C _947_/C vdd gnd OAI21X1
XFILL_2__1105_ vdd gnd FILL
XFILL_2__1036_ vdd gnd FILL
XFILL_1__971_ vdd gnd FILL
XFILL_3__918_ vdd gnd FILL
XFILL_3__849_ vdd gnd FILL
X_1231_ Xin[4] Cin[6] _1312_/A vdd gnd AND2X2
X_1300_ _1300_/A _1300_/B _1300_/C _1356_/C vdd gnd AOI21X1
X_1162_ _1239_/A _1336_/A _1235_/C vdd gnd NAND2X1
X_1093_ _993_/C _993_/B _1093_/C _1100_/C vdd gnd AOI21X1
XFILL_3__1145_ vdd gnd FILL
XFILL_3__1214_ vdd gnd FILL
XFILL_0__1436_ vdd gnd FILL
XFILL_0__1505_ vdd gnd FILL
XFILL_3__1076_ vdd gnd FILL
XFILL_0__1367_ vdd gnd FILL
XFILL_0__1298_ vdd gnd FILL
X_1429_ _1465_/A _1454_/C vdd gnd INVX1
XFILL_1__1476_ vdd gnd FILL
XFILL_2__936_ vdd gnd FILL
XFILL_2__798_ vdd gnd FILL
XFILL_2__867_ vdd gnd FILL
X_942_ _945_/B _943_/B vdd gnd INVX1
X_873_ _925_/C _890_/B _925_/B _877_/C vdd gnd OAI21X1
XFILL_0__1221_ vdd gnd FILL
XFILL_2__1019_ vdd gnd FILL
XFILL_0__1152_ vdd gnd FILL
XFILL_0__1083_ vdd gnd FILL
XFILL_1__954_ vdd gnd FILL
X_1145_ _1145_/A _1145_/B _1145_/C _1154_/B vdd gnd AOI21X1
XFILL_1__885_ vdd gnd FILL
X_1214_ _1422_/B _1297_/A _1552_/D vdd gnd XNOR2X1
XFILL_1__1330_ vdd gnd FILL
XFILL_3__1128_ vdd gnd FILL
XFILL_1__1192_ vdd gnd FILL
X_1076_ _1079_/C _1078_/B _1084_/A vdd gnd NAND2X1
XFILL_0__1419_ vdd gnd FILL
XFILL_1__1261_ vdd gnd FILL
XFILL_3__1059_ vdd gnd FILL
XFILL_2__1370_ vdd gnd FILL
XFILL_1__1459_ vdd gnd FILL
XFILL_0__972_ vdd gnd FILL
XFILL_2__919_ vdd gnd FILL
X_925_ _925_/A _925_/B _925_/C _933_/C vdd gnd AOI21X1
X_787_ _787_/A _787_/B _787_/C _797_/B vdd gnd AOI21X1
X_856_ _861_/A _964_/A _856_/C _867_/A vdd gnd OAI21X1
XFILL_2__1568_ vdd gnd FILL
XFILL_0__1204_ vdd gnd FILL
XFILL_2__1499_ vdd gnd FILL
XFILL_0__1066_ vdd gnd FILL
XFILL_0__1135_ vdd gnd FILL
XFILL_1__937_ vdd gnd FILL
XFILL_1__868_ vdd gnd FILL
X_1128_ _1128_/A _1128_/B _1198_/A _1217_/C vdd gnd OAI21X1
X_1059_ Cin[3] Xin[4] _1065_/B vdd gnd AND2X2
XFILL_1__799_ vdd gnd FILL
XFILL_1__1313_ vdd gnd FILL
XFILL_1__1244_ vdd gnd FILL
XFILL_1__1175_ vdd gnd FILL
XFILL_2__1422_ vdd gnd FILL
XFILL_2__1353_ vdd gnd FILL
XFILL_2__1284_ vdd gnd FILL
XFILL_1_CLKBUF1_insert5 vdd gnd FILL
XFILL_0__955_ vdd gnd FILL
XFILL_0__886_ vdd gnd FILL
X_908_ _977_/A _970_/B _911_/B vdd gnd NAND2X1
X_839_ _912_/A Xin[4] Yin[4] _903_/B vdd gnd AOI21X1
XFILL_3__1462_ vdd gnd FILL
XFILL_3__1393_ vdd gnd FILL
XFILL_0__1118_ vdd gnd FILL
XFILL_0__1049_ vdd gnd FILL
XFILL_4__1005_ vdd gnd FILL
XFILL_1__1089_ vdd gnd FILL
XFILL_1__1158_ vdd gnd FILL
XFILL_1__1227_ vdd gnd FILL
XFILL_3__882_ vdd gnd FILL
XFILL_3__951_ vdd gnd FILL
XFILL_2__1405_ vdd gnd FILL
XFILL_0__938_ vdd gnd FILL
XFILL_2__1198_ vdd gnd FILL
XFILL_2__1267_ vdd gnd FILL
XFILL_2__1336_ vdd gnd FILL
X_1531_ _1547_/Q _1549_/CLK _1577_/A vdd gnd DFFPOSX1
XFILL_0__869_ vdd gnd FILL
X_1462_ _1489_/C _1464_/A _1556_/D vdd gnd XNOR2X1
XFILL_3__1445_ vdd gnd FILL
XFILL_3__1514_ vdd gnd FILL
X_1393_ _1400_/C _1400_/B _1400_/A _1399_/B vdd gnd NAND3X1
XFILL_3__1376_ vdd gnd FILL
XFILL_1__1012_ vdd gnd FILL
XFILL_4__778_ vdd gnd FILL
XFILL_2__1121_ vdd gnd FILL
XFILL_2__1052_ vdd gnd FILL
XFILL_3__865_ vdd gnd FILL
XFILL_3__934_ vdd gnd FILL
XFILL_3__796_ vdd gnd FILL
XFILL_3__1092_ vdd gnd FILL
XFILL_3__1230_ vdd gnd FILL
XFILL_0__1452_ vdd gnd FILL
XFILL_0__1383_ vdd gnd FILL
XFILL_2__1319_ vdd gnd FILL
XFILL_3__1161_ vdd gnd FILL
X_1445_ _1478_/A _1478_/B _1446_/A vdd gnd NAND2X1
X_1514_ _1514_/A _1514_/B _1514_/C _1516_/C vdd gnd OAI21X1
XFILL_1__1561_ vdd gnd FILL
X_1376_ _1435_/A _1376_/B _1466_/A _1386_/B vdd gnd OAI21X1
XFILL_3__1428_ vdd gnd FILL
XFILL_1__1492_ vdd gnd FILL
XFILL_2__883_ vdd gnd FILL
XFILL_2__952_ vdd gnd FILL
XFILL_3__1359_ vdd gnd FILL
XFILL_2__1104_ vdd gnd FILL
XFILL_2__1035_ vdd gnd FILL
XFILL_1__970_ vdd gnd FILL
XBUFX2_insert6 Cin[0] _977_/A vdd gnd BUFX2
XFILL_3__917_ vdd gnd FILL
XFILL_3__848_ vdd gnd FILL
X_1092_ _993_/A _1093_/C vdd gnd INVX1
XFILL_3__779_ vdd gnd FILL
X_1230_ _1304_/B _1237_/B vdd gnd INVX1
X_1161_ Cin[3] Xin[6] _1336_/A vdd gnd AND2X2
XFILL_3__1144_ vdd gnd FILL
XFILL_3__1213_ vdd gnd FILL
XFILL_3__1075_ vdd gnd FILL
XFILL_0__1366_ vdd gnd FILL
XFILL_0__1504_ vdd gnd FILL
XFILL_0__1435_ vdd gnd FILL
XFILL_0__1297_ vdd gnd FILL
XFILL_1_BUFX2_insert10 vdd gnd FILL
X_1428_ _1428_/A _1428_/B _1465_/A vdd gnd NAND2X1
XFILL_1__1475_ vdd gnd FILL
X_1359_ _1414_/C _1366_/A _1366_/B _1361_/A vdd gnd NAND3X1
XFILL_4__1322_ vdd gnd FILL
XFILL_4__1253_ vdd gnd FILL
XFILL_4__1184_ vdd gnd FILL
XFILL_2__866_ vdd gnd FILL
XFILL_2__935_ vdd gnd FILL
X_941_ _941_/A _941_/B _941_/C _941_/D _945_/B vdd gnd AOI22X1
XFILL_2__797_ vdd gnd FILL
X_872_ _872_/A _872_/B _872_/C _875_/C vdd gnd AOI21X1
XFILL_0__1220_ vdd gnd FILL
XFILL_2__1018_ vdd gnd FILL
XFILL_0__1082_ vdd gnd FILL
XFILL_0__1151_ vdd gnd FILL
XFILL_1__953_ vdd gnd FILL
X_1213_ _1296_/A _1213_/B _1297_/A vdd gnd NAND2X1
XFILL_1__884_ vdd gnd FILL
X_1144_ _1154_/C _1242_/A _1153_/C _1219_/A vdd gnd NAND3X1
X_1075_ _1171_/A Xin[7] _1078_/B vdd gnd NAND2X1
XFILL_1__1260_ vdd gnd FILL
XFILL_3__1127_ vdd gnd FILL
XFILL_3__1058_ vdd gnd FILL
XFILL_1__1191_ vdd gnd FILL
XFILL_0__1349_ vdd gnd FILL
XFILL_0__1418_ vdd gnd FILL
XFILL_0__971_ vdd gnd FILL
XFILL_1__1458_ vdd gnd FILL
XFILL_1__1389_ vdd gnd FILL
XFILL_2__918_ vdd gnd FILL
XFILL_2__849_ vdd gnd FILL
X_924_ _947_/B _947_/A _947_/C _948_/C vdd gnd NAND3X1
X_786_ _787_/C _787_/B _787_/A _797_/C vdd gnd NAND3X1
X_855_ Xin[2] _861_/A vdd gnd INVX2
XFILL_2__1567_ vdd gnd FILL
XFILL_2__1498_ vdd gnd FILL
XFILL_4__880_ vdd gnd FILL
XFILL_0__1203_ vdd gnd FILL
XFILL_0__1134_ vdd gnd FILL
XFILL_0__1065_ vdd gnd FILL
XFILL_1__936_ vdd gnd FILL
XFILL_1__867_ vdd gnd FILL
XFILL_1__798_ vdd gnd FILL
X_1127_ _1127_/A _1127_/B _1127_/C _1128_/B vdd gnd AOI21X1
X_1058_ _1143_/A _1149_/D vdd gnd INVX1
XFILL_1__1312_ vdd gnd FILL
XFILL_1__1243_ vdd gnd FILL
XFILL_1__1174_ vdd gnd FILL
XFILL_2__1352_ vdd gnd FILL
XFILL_2__1421_ vdd gnd FILL
XFILL_0__954_ vdd gnd FILL
XFILL_2__1283_ vdd gnd FILL
XFILL_0__885_ vdd gnd FILL
X_907_ Yin[5] _912_/C vdd gnd INVX1
X_838_ _912_/A Xin[4] Yin[4] _903_/C vdd gnd NAND3X1
XFILL_3__1461_ vdd gnd FILL
X_769_ _777_/C _770_/B vdd gnd INVX1
XFILL88950x4050 vdd gnd FILL
XFILL_3__1392_ vdd gnd FILL
XFILL_0__1117_ vdd gnd FILL
XFILL_0__1048_ vdd gnd FILL
XFILL_4__1570_ vdd gnd FILL
XFILL_1_BUFX2_insert6 vdd gnd FILL
XFILL_1__919_ vdd gnd FILL
XFILL89550x54750 vdd gnd FILL
XFILL_1__1226_ vdd gnd FILL
XFILL_1__1088_ vdd gnd FILL
XFILL_1__1157_ vdd gnd FILL
XFILL_3__950_ vdd gnd FILL
XFILL_3__881_ vdd gnd FILL
XFILL_2__1404_ vdd gnd FILL
XFILL_2__1335_ vdd gnd FILL
XFILL_0__937_ vdd gnd FILL
XFILL_2__1197_ vdd gnd FILL
XFILL_2__1266_ vdd gnd FILL
XFILL_0__868_ vdd gnd FILL
X_1530_ _1546_/Q _1552_/CLK _1576_/A vdd gnd DFFPOSX1
X_1461_ _1488_/C _1486_/A _1464_/A vdd gnd NAND2X1
X_1392_ _1392_/A _1392_/B _1392_/C _1400_/A vdd gnd OAI21X1
XFILL_0__799_ vdd gnd FILL
XFILL_3__1444_ vdd gnd FILL
XFILL_3__1513_ vdd gnd FILL
XFILL_3__1375_ vdd gnd FILL
XFILL_1__1011_ vdd gnd FILL
XFILL_4__1484_ vdd gnd FILL
XFILL89550x66450 vdd gnd FILL
XFILL_2__1120_ vdd gnd FILL
XFILL_1__1209_ vdd gnd FILL
XFILL_2__1051_ vdd gnd FILL