* NGSPICE file created from fir_pe.ext - technology: scmos

* Black-box entry subcircuit for FILL abstract view
.subckt FILL vdd gnd
.ends

* Black-box entry subcircuit for OAI21X1 abstract view
.subckt OAI21X1 A B C Y vdd gnd
.ends

* Black-box entry subcircuit for INVX1 abstract view
.subckt INVX1 A Y vdd gnd
.ends

* Black-box entry subcircuit for AND2X2 abstract view
.subckt AND2X2 A B Y vdd gnd
.ends

* Black-box entry subcircuit for NAND2X1 abstract view
.subckt NAND2X1 A B Y vdd gnd
.ends

* Black-box entry subcircuit for NAND3X1 abstract view
.subckt NAND3X1 A B C Y vdd gnd
.ends

* Black-box entry subcircuit for AOI21X1 abstract view
.subckt AOI21X1 A B C Y vdd gnd
.ends

* Black-box entry subcircuit for DFFPOSX1 abstract view
.subckt DFFPOSX1 D CLK Q vdd gnd
.ends

* Black-box entry subcircuit for BUFX2 abstract view
.subckt BUFX2 A Y vdd gnd
.ends

* Black-box entry subcircuit for NOR2X1 abstract view
.subckt NOR2X1 A B Y vdd gnd
.ends

* Black-box entry subcircuit for AOI22X1 abstract view
.subckt AOI22X1 A B C D Y vdd gnd
.ends

* Black-box entry subcircuit for XNOR2X1 abstract view
.subckt XNOR2X1 A B Y vdd gnd
.ends

* Black-box entry subcircuit for OAI22X1 abstract view
.subckt OAI22X1 A B C D Y vdd gnd
.ends

* Black-box entry subcircuit for NOR3X1 abstract view
.subckt NOR3X1 A B C Y vdd gnd
.ends

* Black-box entry subcircuit for INVX2 abstract view
.subckt INVX2 A Y vdd gnd
.ends

* Black-box entry subcircuit for CLKBUF1 abstract view
.subckt CLKBUF1 A Y vdd gnd
.ends

* Black-box entry subcircuit for OR2X2 abstract view
.subckt OR2X2 A B Y vdd gnd
.ends

* Black-box entry subcircuit for XOR2X1 abstract view
.subckt XOR2X1 A B Y vdd gnd
.ends

* Black-box entry subcircuit for INVX4 abstract view
.subckt INVX4 A Y vdd gnd
.ends

* Black-box entry subcircuit for INVX8 abstract view
.subckt INVX8 A Y vdd gnd
.ends

.subckt fir_pe gnd vdd Cin[7] Cin[6] Cin[5] Cin[4] Cin[3] Cin[2] Cin[1] Cin[0] Rdy
+ Vld Xin[3] Xin[2] Xin[1] Xin[0] Xout[3] Xout[2] Xout[1] Xout[0] Yin[3] Yin[2] Yin[1]
+ Yin[0] Yout[3] Yout[2] Yout[1] Yout[0] clk
XFILL_1__1670_ vdd gnd FILL
XFILL_3__1537_ vdd gnd FILL
XFILL_3__1606_ vdd gnd FILL
XFILL_0__1759_ vdd gnd FILL
XFILL_3__1468_ vdd gnd FILL
XFILL_0__1828_ vdd gnd FILL
XFILL_2__992_ vdd gnd FILL
XFILL_3__1399_ vdd gnd FILL
XFILL_1__1104_ vdd gnd FILL
XFILL_1__1035_ vdd gnd FILL
XFILL_1__1799_ vdd gnd FILL
XFILL_2__1213_ vdd gnd FILL
XFILL100050x150 vdd gnd FILL
XFILL_2__1144_ vdd gnd FILL
XFILL_2__1075_ vdd gnd FILL
XFILL_0_CLKBUF1_insert6 vdd gnd FILL
XFILL_0__1544_ vdd gnd FILL
XFILL_0__1613_ vdd gnd FILL
XFILL_3__957_ vdd gnd FILL
XFILL_3__1322_ vdd gnd FILL
X_1270_ _1274_/A _1274_/B _1371_/C _1280_/A vdd gnd OAI21X1
XFILL_0__1475_ vdd gnd FILL
XFILL_3__1184_ vdd gnd FILL
XFILL_3__1253_ vdd gnd FILL
X_1606_ _1892_/Q _1822_/A vdd gnd INVX1
XFILL_1__1653_ vdd gnd FILL
X_1537_ _1539_/A _1538_/A vdd gnd INVX1
XFILL_1__1722_ vdd gnd FILL
X_1468_ _1468_/A _1495_/B _1498_/A vdd gnd AND2X2
X_1399_ _1399_/A _1399_/B _1494_/A vdd gnd NAND2X1
XFILL_1__1584_ vdd gnd FILL
XFILL_4__1293_ vdd gnd FILL
XFILL_2__975_ vdd gnd FILL
XFILL_2__1762_ vdd gnd FILL
XFILL_2__1831_ vdd gnd FILL
XFILL_1__1018_ vdd gnd FILL
X_981_ _981_/A _983_/B vdd gnd INVX1
XFILL_4__1629_ vdd gnd FILL
XFILL_2__1693_ vdd gnd FILL
XFILL_0__1260_ vdd gnd FILL
XFILL_0__1191_ vdd gnd FILL
XFILL_2__1127_ vdd gnd FILL
XFILL_2__1058_ vdd gnd FILL
XFILL_1__993_ vdd gnd FILL
X_1322_ _1322_/A _1399_/A _1322_/C _1399_/B vdd gnd NAND3X1
XFILL99750x15750 vdd gnd FILL
X_1253_ _1360_/B _1360_/A _1263_/C _1269_/B vdd gnd NAND3X1
XFILL_0__1527_ vdd gnd FILL
XFILL_3__1305_ vdd gnd FILL
XFILL_3__1236_ vdd gnd FILL
X_1184_ _1184_/A _1243_/C _1184_/C _1193_/A vdd gnd AOI21X1
XFILL_0__1458_ vdd gnd FILL
XFILL_0__1389_ vdd gnd FILL
XFILL_3__1098_ vdd gnd FILL
XFILL_3__1167_ vdd gnd FILL
XFILL_1__1636_ vdd gnd FILL
XFILL_1__1705_ vdd gnd FILL
XFILL101250x85950 vdd gnd FILL
XFILL_1__1498_ vdd gnd FILL
XFILL_1__1567_ vdd gnd FILL
XFILL_2__958_ vdd gnd FILL
XFILL_2__1745_ vdd gnd FILL
XFILL_2__1814_ vdd gnd FILL
X_964_ Xin[3] _965_/B _965_/C vdd gnd NAND2X1
XFILL_2__1676_ vdd gnd FILL
X_1871_ _1871_/D _1910_/CLK _970_/B vdd gnd DFFPOSX1
XFILL_0__1312_ vdd gnd FILL
XFILL_0__1174_ vdd gnd FILL
XFILL_0__1243_ vdd gnd FILL
XFILL_3__1021_ vdd gnd FILL
XFILL_3__1785_ vdd gnd FILL
X_1305_ _1311_/C _1424_/A _1403_/B vdd gnd NAND2X1
XFILL_1__976_ vdd gnd FILL
X_1236_ _1317_/C _1313_/B _1313_/A _1261_/A vdd gnd OAI21X1
XFILL_1__1352_ vdd gnd FILL
XFILL_1__1421_ vdd gnd FILL
XBUFX2_insert0 _1910_/Q _983_/A vdd gnd BUFX2
X_1098_ _1216_/A _1098_/B _1098_/C _1873_/D vdd gnd OAI21X1
XFILL_1__1283_ vdd gnd FILL
XFILL_3__1219_ vdd gnd FILL
X_1167_ _1168_/A _1167_/B _1167_/C _1191_/A vdd gnd NAND3X1
XFILL_1__1619_ vdd gnd FILL
XFILL_2__1530_ vdd gnd FILL
XFILL_2__1461_ vdd gnd FILL
XFILL_4__1328_ vdd gnd FILL
XFILL_2__1392_ vdd gnd FILL
XFILL_0__994_ vdd gnd FILL
XFILL_2__1659_ vdd gnd FILL
XFILL_2__1728_ vdd gnd FILL
XFILL_0__1792_ vdd gnd FILL
XFILL_3__1570_ vdd gnd FILL
X_947_ _951_/A _947_/B _948_/C vdd gnd NAND2X1
X_1021_ _1036_/C _1023_/B vdd gnd INVX1
X_1785_ _1793_/A _1793_/B _1785_/C _1792_/B vdd gnd OAI21X1
XFILL_3__1004_ vdd gnd FILL
X_1854_ _968_/Y _1904_/CLK _966_/A vdd gnd DFFPOSX1
XFILL_0__1226_ vdd gnd FILL
XFILL_0__1157_ vdd gnd FILL
XFILL_3__1768_ vdd gnd FILL
XFILL_3__1837_ vdd gnd FILL
XFILL_0__1088_ vdd gnd FILL
XFILL_3__1699_ vdd gnd FILL
XFILL_1__1404_ vdd gnd FILL
XFILL_1__959_ vdd gnd FILL
X_1219_ _1224_/B _1219_/B _1383_/A vdd gnd NAND2X1
XFILL_1__1335_ vdd gnd FILL
XFILL_1__1266_ vdd gnd FILL
XFILL_3__990_ vdd gnd FILL
XFILL_1__1197_ vdd gnd FILL
XFILL_2__1513_ vdd gnd FILL
XFILL_2__1444_ vdd gnd FILL
XFILL_2__1375_ vdd gnd FILL
XFILL_0__977_ vdd gnd FILL
XFILL_0__1011_ vdd gnd FILL
XFILL_3__1622_ vdd gnd FILL
X_1570_ _995_/B _1702_/B _1642_/C vdd gnd NAND2X1
XFILL_0__1913_ vdd gnd FILL
XFILL_3__1553_ vdd gnd FILL
XFILL_0__1775_ vdd gnd FILL
XFILL_3__1484_ vdd gnd FILL
XFILL_0__1844_ vdd gnd FILL
XFILL_4__955_ vdd gnd FILL
X_1004_ _1801_/A _1769_/B _1004_/C _1867_/D vdd gnd OAI21X1
XFILL_1__1120_ vdd gnd FILL
XFILL_4__1731_ vdd gnd FILL
X_1768_ _1768_/A _1773_/A _1790_/A _1769_/C vdd gnd AOI21X1
X_1906_ Rdy _1908_/CLK _1906_/Q vdd gnd DFFPOSX1
X_1837_ _1848_/A _1837_/B _1837_/C _1899_/D vdd gnd AOI21X1
XFILL_0__1209_ vdd gnd FILL
XFILL_1__1051_ vdd gnd FILL
XFILL_4__1662_ vdd gnd FILL
X_1699_ _1703_/A _1699_/B _1700_/A vdd gnd NOR2X1
XFILL_2__1160_ vdd gnd FILL
XFILL_1__1318_ vdd gnd FILL
XFILL_4__1027_ vdd gnd FILL
XFILL_2__1091_ vdd gnd FILL
XFILL_1__1249_ vdd gnd FILL
XFILL_3__973_ vdd gnd FILL
XFILL_0__1560_ vdd gnd FILL
XFILL_0__1491_ vdd gnd FILL
XFILL_2__1427_ vdd gnd FILL
XFILL_2__1358_ vdd gnd FILL
XFILL_2__1289_ vdd gnd FILL
X_1622_ _1622_/A _1622_/B _1626_/C vdd gnd NAND2X1
X_1553_ _1553_/A _1576_/B _1578_/B _1625_/C _1634_/A vdd gnd AOI22X1
XFILL_3__1605_ vdd gnd FILL
XFILL_2_BUFX2_insert25 vdd gnd FILL
XFILL_2_BUFX2_insert14 vdd gnd FILL
X_1484_ _1484_/A _1484_/B _1484_/C _1487_/C vdd gnd AOI21X1
XFILL_0__1689_ vdd gnd FILL
XFILL_3__1536_ vdd gnd FILL
XFILL_0__1758_ vdd gnd FILL
XFILL_3__1467_ vdd gnd FILL
XFILL_3__1398_ vdd gnd FILL
XFILL_0__1827_ vdd gnd FILL
XFILL_2__991_ vdd gnd FILL
XFILL_1__1103_ vdd gnd FILL
XFILL_1__1034_ vdd gnd FILL
XFILL_4__1576_ vdd gnd FILL
XFILL_1__1798_ vdd gnd FILL
XFILL_1_BUFX2_insert0 vdd gnd FILL
XFILL_2__1212_ vdd gnd FILL
XFILL_2__1143_ vdd gnd FILL
XFILL_0_CLKBUF1_insert7 vdd gnd FILL
XFILL_2__1074_ vdd gnd FILL
XFILL_3__956_ vdd gnd FILL
XFILL_0__1612_ vdd gnd FILL
XFILL_0__1543_ vdd gnd FILL
XFILL_3__1321_ vdd gnd FILL
XFILL_3__1252_ vdd gnd FILL
XFILL_0__1474_ vdd gnd FILL
XFILL_3__1183_ vdd gnd FILL
X_1536_ _1605_/B _1891_/Q _1539_/A vdd gnd XNOR2X1
X_1605_ _1820_/A _1605_/B _1620_/B _1621_/B vdd gnd OAI21X1
XFILL_1__1652_ vdd gnd FILL
XFILL_1__1583_ vdd gnd FILL
XFILL_1__1721_ vdd gnd FILL
X_1467_ _1552_/A _1476_/B _1476_/A _1479_/A vdd gnd NAND3X1
X_1398_ _1398_/A _1398_/B _1483_/A _1482_/C vdd gnd OAI21X1
XFILL_4__1430_ vdd gnd FILL
XFILL_4__1361_ vdd gnd FILL
XFILL_3__1519_ vdd gnd FILL
XFILL_1__1017_ vdd gnd FILL
XFILL_2__974_ vdd gnd FILL
XFILL_2__1692_ vdd gnd FILL
XFILL_2__1761_ vdd gnd FILL
XFILL_1__1919_ vdd gnd FILL
X_980_ _996_/A _980_/B _980_/C _980_/Y vdd gnd OAI21X1
XFILL_2__1830_ vdd gnd FILL
XFILL_0__1190_ vdd gnd FILL
XFILL_2__1126_ vdd gnd FILL
XFILL_2__1057_ vdd gnd FILL
XFILL_1__992_ vdd gnd FILL
XFILL_3__939_ vdd gnd FILL
X_1321_ _1321_/A _1321_/B _1321_/C _1322_/C vdd gnd OAI21X1
X_1252_ _1254_/C _1338_/C _1254_/A _1360_/B vdd gnd NAND3X1
XFILL_0__1526_ vdd gnd FILL
XFILL_0__1457_ vdd gnd FILL
XFILL_3__1304_ vdd gnd FILL
XFILL_3__1235_ vdd gnd FILL
X_1183_ _1266_/B _1266_/A _1193_/C _1198_/B vdd gnd NAND3X1
XFILL_0__1388_ vdd gnd FILL
XFILL_3__1097_ vdd gnd FILL
XFILL_3__1166_ vdd gnd FILL
X_1519_ _1519_/A _1519_/B _1519_/C _1522_/A vdd gnd OAI21X1
XFILL_1__1635_ vdd gnd FILL
XFILL_1__1566_ vdd gnd FILL
XFILL_1__1704_ vdd gnd FILL
XFILL_4__1275_ vdd gnd FILL
XFILL_1__1497_ vdd gnd FILL
XFILL_2__957_ vdd gnd FILL
XFILL_2__1675_ vdd gnd FILL
XFILL_2__1744_ vdd gnd FILL
XFILL_2__1813_ vdd gnd FILL
X_963_ _963_/A _965_/B _963_/C _963_/Y vdd gnd OAI21X1
XFILL_0__1311_ vdd gnd FILL
XFILL_3__1020_ vdd gnd FILL
X_1870_ _1870_/D _1903_/CLK _967_/A vdd gnd DFFPOSX1
XFILL_0__1242_ vdd gnd FILL
XFILL_2__1109_ vdd gnd FILL
XFILL_0__1173_ vdd gnd FILL
XFILL_3__1784_ vdd gnd FILL
XFILL_1__1420_ vdd gnd FILL
X_1304_ _953_/B Cin[5] _1424_/A vdd gnd AND2X2
XFILL_1__975_ vdd gnd FILL
XBUFX2_insert1 _1910_/Q _977_/A vdd gnd BUFX2
X_1235_ _1240_/C _1235_/B _1313_/B vdd gnd AND2X2
X_1166_ _1847_/B _1533_/B _1239_/A _1167_/C vdd gnd OAI21X1
XFILL_0__1509_ vdd gnd FILL
XFILL_1__1351_ vdd gnd FILL
XFILL_1__1282_ vdd gnd FILL
XFILL_3__1218_ vdd gnd FILL
X_1097_ _1097_/A _1097_/B _1098_/B vdd gnd NAND2X1
XFILL_3__1149_ vdd gnd FILL
XFILL_4__1060_ vdd gnd FILL
XFILL_1__1618_ vdd gnd FILL
XFILL_1__1549_ vdd gnd FILL
XFILL_2__1460_ vdd gnd FILL
XFILL_2__1391_ vdd gnd FILL
XFILL_0__993_ vdd gnd FILL
XFILL_2__1727_ vdd gnd FILL
XFILL_2__1658_ vdd gnd FILL
XFILL_0__1791_ vdd gnd FILL
X_1020_ _950_/B _1106_/B _1899_/Q _1036_/C vdd gnd NAND3X1
X_946_ _946_/A _959_/A vdd gnd INVX1
XFILL_2__1589_ vdd gnd FILL
XFILL_3__1003_ vdd gnd FILL
X_1784_ _1793_/A _1784_/B _1785_/C vdd gnd NAND2X1
X_1853_ _965_/Y _1910_/CLK _955_/A vdd gnd DFFPOSX1
XFILL_0__1156_ vdd gnd FILL
XFILL_0__1225_ vdd gnd FILL
XFILL_0__1087_ vdd gnd FILL
XFILL_3__1767_ vdd gnd FILL
XFILL_3__1836_ vdd gnd FILL
XFILL_3__1698_ vdd gnd FILL
XFILL_1__1403_ vdd gnd FILL
XFILL_1__958_ vdd gnd FILL
X_1218_ _1290_/C _1287_/A vdd gnd INVX1
X_1149_ _1153_/A _1149_/B _1149_/C _1217_/B vdd gnd NAND3X1
XFILL_1__1334_ vdd gnd FILL
XFILL_1__1196_ vdd gnd FILL
XFILL_1__1265_ vdd gnd FILL
XFILL_2__1512_ vdd gnd FILL
XFILL_2__1443_ vdd gnd FILL
XFILL_2__1374_ vdd gnd FILL
XFILL_0__1010_ vdd gnd FILL
XFILL_0__976_ vdd gnd FILL
XFILL_3__1621_ vdd gnd FILL
XFILL_3__1552_ vdd gnd FILL
XFILL_0__1843_ vdd gnd FILL
XFILL_0__1912_ vdd gnd FILL
XFILL_3__1483_ vdd gnd FILL
XFILL_0__1774_ vdd gnd FILL
X_1003_ _933_/B _1790_/A _1004_/C vdd gnd NAND2X1
X_929_ _944_/A _966_/A _965_/B _978_/A _930_/C vdd gnd AOI22X1
X_1905_ _1905_/D _1908_/CLK _956_/B vdd gnd DFFPOSX1
XFILL_1__1050_ vdd gnd FILL
X_1767_ _1773_/B _1767_/B _1768_/A vdd gnd NOR2X1
X_1698_ _1699_/B _1703_/A _1700_/B vdd gnd AND2X2
X_1836_ _1848_/A _1899_/Q _1837_/C vdd gnd NOR2X1
XFILL_0__1208_ vdd gnd FILL
XFILL_0__1139_ vdd gnd FILL
XFILL_3__1819_ vdd gnd FILL
XFILL_1__1317_ vdd gnd FILL
XFILL_1__1248_ vdd gnd FILL
XFILL_2__1090_ vdd gnd FILL
XFILL_1__1179_ vdd gnd FILL
XFILL_3__972_ vdd gnd FILL
XFILL_0__1490_ vdd gnd FILL
XFILL_2__1426_ vdd gnd FILL
XFILL_2__1357_ vdd gnd FILL
XFILL_2__1288_ vdd gnd FILL
X_1621_ _1621_/A _1621_/B _1622_/B vdd gnd NAND2X1
X_1552_ _1552_/A _1552_/B _1552_/C _1574_/C vdd gnd OAI21X1
XFILL_2_BUFX2_insert15 vdd gnd FILL
XFILL_0__959_ vdd gnd FILL
X_1483_ _1483_/A _1484_/C vdd gnd INVX1
XFILL_3__1535_ vdd gnd FILL
XFILL_3__1604_ vdd gnd FILL
XFILL_0__1826_ vdd gnd FILL
XFILL_0__1688_ vdd gnd FILL
XFILL_0__1757_ vdd gnd FILL
XFILL_3__1466_ vdd gnd FILL
XFILL_2__990_ vdd gnd FILL
XFILL_3__1397_ vdd gnd FILL
XFILL_4__937_ vdd gnd FILL
XFILL_1__1102_ vdd gnd FILL
XFILL_1__1033_ vdd gnd FILL
XFILL_4__1713_ vdd gnd FILL
X_1819_ Yin[1] _1824_/B _1820_/C vdd gnd NAND2X1
XFILL_4__1644_ vdd gnd FILL
XFILL_1__1797_ vdd gnd FILL
XFILL_1_BUFX2_insert1 vdd gnd FILL
XFILL_4__1009_ vdd gnd FILL
XFILL_2__1142_ vdd gnd FILL
XFILL_2__1073_ vdd gnd FILL
XFILL_2__1211_ vdd gnd FILL
XFILL_0_CLKBUF1_insert8 vdd gnd FILL
XFILL100050x15750 vdd gnd FILL
XFILL_3__955_ vdd gnd FILL
XFILL_0__1611_ vdd gnd FILL
XFILL_0__1542_ vdd gnd FILL
XFILL_2__1409_ vdd gnd FILL
XFILL_0__1473_ vdd gnd FILL
XFILL_3__1320_ vdd gnd FILL
XFILL_3__1182_ vdd gnd FILL
XFILL_3__1251_ vdd gnd FILL
XFILL_1__1720_ vdd gnd FILL
X_1535_ _1539_/B _1539_/C _1538_/B vdd gnd NAND2X1
X_1604_ _1891_/Q _1820_/A vdd gnd INVX1
XFILL_1__1651_ vdd gnd FILL
XFILL_1__1582_ vdd gnd FILL
X_1466_ _1555_/B _1470_/B _1551_/C _1476_/A vdd gnd OAI21X1
XFILL_0__1809_ vdd gnd FILL
XFILL_3__1518_ vdd gnd FILL
X_1397_ _1397_/A _1397_/B _1397_/C _1398_/B vdd gnd AOI21X1
XFILL_3__1449_ vdd gnd FILL
XFILL_2__973_ vdd gnd FILL
XFILL_1__1016_ vdd gnd FILL
XFILL_2__1691_ vdd gnd FILL
XFILL_2__1760_ vdd gnd FILL
XFILL_1__1918_ vdd gnd FILL
XFILL_1__1849_ vdd gnd FILL
XFILL_4__1558_ vdd gnd FILL
XFILL_4__1489_ vdd gnd FILL
XFILL_2__1125_ vdd gnd FILL
XFILL_2__1056_ vdd gnd FILL
XFILL100650x74250 vdd gnd FILL
X_1320_ _1425_/C _1320_/B _1320_/C _1399_/A vdd gnd NAND3X1
XFILL_1__991_ vdd gnd FILL
XFILL_3__938_ vdd gnd FILL
X_1182_ _1184_/C _1243_/C _1184_/A _1266_/B vdd gnd NAND3X1
X_1251_ _1338_/B _1254_/A vdd gnd INVX1
XFILL_0__1525_ vdd gnd FILL
XFILL_0__1456_ vdd gnd FILL
XFILL_3__1303_ vdd gnd FILL
XFILL_3__1234_ vdd gnd FILL
XFILL_3__1165_ vdd gnd FILL
XFILL_3__1096_ vdd gnd FILL
XFILL_0__1387_ vdd gnd FILL
XFILL_1__1703_ vdd gnd FILL
X_1518_ _956_/B Cin[6] _1519_/B vdd gnd NAND2X1
X_1449_ _955_/A _1449_/B _1897_/Q _1450_/B vdd gnd AOI21X1
XFILL_4__1412_ vdd gnd FILL
XFILL_1__1634_ vdd gnd FILL
XFILL_1__1496_ vdd gnd FILL
XFILL_1__1565_ vdd gnd FILL
XFILL_4__1343_ vdd gnd FILL
XFILL_2__956_ vdd gnd FILL
XFILL_2__1812_ vdd gnd FILL
XFILL_2__1674_ vdd gnd FILL
XFILL_2__1743_ vdd gnd FILL
X_962_ Xin[2] _965_/B _963_/C vdd gnd NAND2X1
XFILL100050x39150 vdd gnd FILL
XFILL_0__1310_ vdd gnd FILL
XFILL_0__1241_ vdd gnd FILL
XFILL_2__1108_ vdd gnd FILL
XFILL_0__1172_ vdd gnd FILL
XFILL_2__1039_ vdd gnd FILL
XFILL_3__1783_ vdd gnd FILL
X_1303_ _1315_/A _1316_/B vdd gnd INVX1
XFILL_1__974_ vdd gnd FILL
XFILL_1__1350_ vdd gnd FILL
XBUFX2_insert2 _1910_/Q _992_/A vdd gnd BUFX2
X_1234_ _1240_/C _1235_/B _1317_/C vdd gnd NOR2X1
X_1096_ _1149_/B _1097_/B vdd gnd INVX1
X_1165_ _956_/B Cin[2] _1239_/A vdd gnd AND2X2
XFILL_0__1508_ vdd gnd FILL
XFILL_0__1439_ vdd gnd FILL
XFILL_1__1281_ vdd gnd FILL
XFILL_3__1217_ vdd gnd FILL
XFILL_3__1148_ vdd gnd FILL
XFILL_3__1079_ vdd gnd FILL
XFILL_1__1548_ vdd gnd FILL
XFILL_1__1617_ vdd gnd FILL
XFILL_1__1479_ vdd gnd FILL
XFILL_4__1257_ vdd gnd FILL
XFILL_2__1390_ vdd gnd FILL
XFILL_4__1188_ vdd gnd FILL
XFILL_0__992_ vdd gnd FILL
XFILL_2__939_ vdd gnd FILL
X_945_ _945_/A _945_/B _945_/C _945_/Y vdd gnd OAI21X1
XFILL99750x150 vdd gnd FILL
XFILL_2__1726_ vdd gnd FILL
XFILL_2__1588_ vdd gnd FILL
XFILL_2__1657_ vdd gnd FILL
XFILL_0__1790_ vdd gnd FILL
XFILL_3__1002_ vdd gnd FILL
XFILL_4__970_ vdd gnd FILL
XFILL_0__1224_ vdd gnd FILL
X_1852_ _963_/Y _1904_/CLK _952_/A vdd gnd DFFPOSX1
X_1783_ _1783_/A _1793_/C _1784_/B vdd gnd NAND2X1
XFILL_0__1155_ vdd gnd FILL
XFILL_3__1835_ vdd gnd FILL
XFILL_0__1086_ vdd gnd FILL
XFILL_3__1697_ vdd gnd FILL
XFILL_3__1766_ vdd gnd FILL
XFILL_1__957_ vdd gnd FILL
XFILL_1__1333_ vdd gnd FILL
XFILL_1__1402_ vdd gnd FILL
XFILL_4__1111_ vdd gnd FILL
X_1079_ _1079_/A _1079_/B _1082_/A _1101_/B vdd gnd AOI21X1
X_1217_ _1217_/A _1217_/B _1217_/C _1292_/B vdd gnd OAI21X1
XFILL_4__1042_ vdd gnd FILL
X_1148_ _1149_/C _1153_/A _1149_/B _1151_/A vdd gnd AOI21X1
XFILL_1__1195_ vdd gnd FILL
XFILL_1__1264_ vdd gnd FILL
XFILL_2__1442_ vdd gnd FILL
XFILL_2__1511_ vdd gnd FILL
XFILL_2__1373_ vdd gnd FILL
XFILL_0__975_ vdd gnd FILL
XFILL_2__1709_ vdd gnd FILL
XFILL_3__1620_ vdd gnd FILL
XFILL_0__1773_ vdd gnd FILL
XFILL_3__1551_ vdd gnd FILL
X_928_ _944_/A _928_/B _965_/B vdd gnd NOR2X1
XFILL_0__1842_ vdd gnd FILL
XFILL_0__1911_ vdd gnd FILL
X_1002_ _1883_/Q _1769_/B vdd gnd INVX1
XFILL_3__1482_ vdd gnd FILL
X_1835_ _1848_/A _1835_/B _1835_/C _1898_/D vdd gnd OAI21X1
XFILL_0__1207_ vdd gnd FILL
X_1904_ _1904_/D _1904_/CLK _953_/B vdd gnd DFFPOSX1
XFILL_4__1591_ vdd gnd FILL
X_1697_ _1705_/A _1706_/A _1703_/A vdd gnd NAND2X1
X_1766_ _1773_/B _1767_/B _1766_/C _1769_/D vdd gnd OAI21X1
XFILL_3__1818_ vdd gnd FILL
XFILL_0__1138_ vdd gnd FILL
XFILL_0__1069_ vdd gnd FILL
XFILL_3__1749_ vdd gnd FILL
XFILL_1__1316_ vdd gnd FILL
XFILL_1__1178_ vdd gnd FILL
XFILL_1__1247_ vdd gnd FILL
XFILL_3__971_ vdd gnd FILL
XFILL_2__1356_ vdd gnd FILL
XFILL_2__1425_ vdd gnd FILL
XFILL_0__958_ vdd gnd FILL
XFILL_2__1287_ vdd gnd FILL
X_1620_ _1620_/A _1620_/B _1620_/C _1622_/A vdd gnd NAND3X1
X_1551_ _1551_/A _1551_/B _1551_/C _1552_/B vdd gnd AOI21X1
X_1482_ _1482_/A _1482_/B _1482_/C _1571_/A vdd gnd NAND3X1
XFILL_2_BUFX2_insert16 vdd gnd FILL
XFILL_3__1603_ vdd gnd FILL
XFILL_3__1534_ vdd gnd FILL
XFILL_0__1756_ vdd gnd FILL
XFILL_3__1465_ vdd gnd FILL
XFILL_0__1825_ vdd gnd FILL
XFILL_0__1687_ vdd gnd FILL
XFILL_1__1101_ vdd gnd FILL
XFILL_3__1396_ vdd gnd FILL
X_1818_ _1827_/A _1824_/B _1818_/C _1890_/D vdd gnd AOI21X1
XFILL_1__1032_ vdd gnd FILL
X_1749_ _1749_/A _1751_/C _1749_/C _1749_/D _1777_/A vdd gnd OAI22X1
XFILL_1__1796_ vdd gnd FILL
XFILL_1_BUFX2_insert2 vdd gnd FILL
XFILL_2__1210_ vdd gnd FILL
XFILL_2__1141_ vdd gnd FILL
XFILL_2__1072_ vdd gnd FILL
XFILL100950x46950 vdd gnd FILL
XFILL_0_CLKBUF1_insert9 vdd gnd FILL
XFILL_0__1610_ vdd gnd FILL
XFILL_3__954_ vdd gnd FILL
XFILL_0__1541_ vdd gnd FILL
XFILL_0__1472_ vdd gnd FILL
XFILL_2__1339_ vdd gnd FILL
XFILL_2__1408_ vdd gnd FILL
XFILL_3__1181_ vdd gnd FILL
XFILL_3__1250_ vdd gnd FILL
X_1603_ _1649_/B _1649_/A _1687_/A vdd gnd NAND2X1
X_1534_ _1597_/A _1597_/B _1592_/C _1539_/B vdd gnd NAND3X1
X_1465_ _1465_/A _1465_/B _1543_/A _1555_/B vdd gnd AOI21X1
XFILL_1__1650_ vdd gnd FILL
XFILL_0__1739_ vdd gnd FILL
XFILL_3__1517_ vdd gnd FILL
XFILL_1__1581_ vdd gnd FILL
XFILL_3__1448_ vdd gnd FILL
XFILL_0__1808_ vdd gnd FILL
XFILL_4__1290_ vdd gnd FILL
X_1396_ _1396_/A _1396_/B _1396_/C _1396_/D _1704_/C vdd gnd OAI22X1
XFILL_2__972_ vdd gnd FILL
XFILL_3__1379_ vdd gnd FILL
XFILL_1__1015_ vdd gnd FILL
XFILL_2__1690_ vdd gnd FILL
XFILL_4__1626_ vdd gnd FILL
XFILL_1__1779_ vdd gnd FILL
XFILL_1__1848_ vdd gnd FILL
XFILL_1__1917_ vdd gnd FILL
XFILL100950x58650 vdd gnd FILL
XFILL_2__1055_ vdd gnd FILL
XFILL_2__1124_ vdd gnd FILL
XFILL_1__990_ vdd gnd FILL
XFILL_0__1524_ vdd gnd FILL
XFILL_3__937_ vdd gnd FILL
XFILL_3__1302_ vdd gnd FILL
X_1181_ _1243_/B _1184_/A vdd gnd INVX1
X_1250_ _1338_/A _1254_/C vdd gnd INVX1
XFILL_0__1455_ vdd gnd FILL
XFILL_3__1233_ vdd gnd FILL
XFILL_3__1095_ vdd gnd FILL
XFILL_0__1386_ vdd gnd FILL
XFILL_3__1164_ vdd gnd FILL
XFILL_1__1633_ vdd gnd FILL
X_1517_ _1517_/A _1517_/B _1517_/C _1553_/A vdd gnd NAND3X1
X_1448_ _1524_/A _1524_/B _1542_/B _1465_/A vdd gnd NAND3X1
XFILL_1__1702_ vdd gnd FILL
XFILL_1__1564_ vdd gnd FILL
XFILL_1__1495_ vdd gnd FILL
X_1379_ _1379_/A _1379_/B _1379_/C _1484_/B vdd gnd OAI21X1
XFILL_2__955_ vdd gnd FILL
XFILL_2__1742_ vdd gnd FILL
XFILL_2__1811_ vdd gnd FILL
X_961_ _961_/A _965_/B _961_/C _961_/Y vdd gnd OAI21X1
XFILL_4__1609_ vdd gnd FILL
XFILL_2__1673_ vdd gnd FILL
XFILL_0__1240_ vdd gnd FILL
XFILL_2__1107_ vdd gnd FILL
XFILL_0__1171_ vdd gnd FILL
XFILL_2__1038_ vdd gnd FILL
XFILL_3__1782_ vdd gnd FILL
X_1302_ _947_/B Cin[7] _1315_/A vdd gnd NAND2X1
X_1233_ _946_/A Cin[2] _1235_/B vdd gnd NAND2X1
XFILL_1__973_ vdd gnd FILL
XFILL_0__1507_ vdd gnd FILL
XBUFX2_insert3 _1910_/Q _996_/A vdd gnd BUFX2
XFILL_1__1280_ vdd gnd FILL
X_1095_ _1213_/B _1095_/B _1095_/C _1149_/B vdd gnd NOR3X1
X_1164_ _1849_/B _1533_/D _1169_/A _1167_/B vdd gnd OAI21X1
XFILL_0__1438_ vdd gnd FILL
XFILL_0__1369_ vdd gnd FILL
XFILL_3__1078_ vdd gnd FILL
XFILL_3__1147_ vdd gnd FILL
XFILL_3__1216_ vdd gnd FILL
XFILL_1__1616_ vdd gnd FILL
XFILL_4__1325_ vdd gnd FILL
XFILL_1__1547_ vdd gnd FILL
XFILL_1__1478_ vdd gnd FILL
XFILL_0__991_ vdd gnd FILL
XFILL_2__938_ vdd gnd FILL
XFILL_2__1725_ vdd gnd FILL
X_944_ _944_/A _975_/A _965_/B _989_/A _945_/C vdd gnd AOI22X1
XFILL_2__1587_ vdd gnd FILL
XFILL_2__1656_ vdd gnd FILL
XFILL_3__1001_ vdd gnd FILL
XFILL_0__1223_ vdd gnd FILL
XFILL_0__1154_ vdd gnd FILL
X_1851_ _961_/Y _1904_/CLK _949_/A vdd gnd DFFPOSX1
X_1782_ _1793_/B _1782_/B _1783_/A vdd gnd NAND2X1
XFILL_3__1834_ vdd gnd FILL
XFILL_0__1085_ vdd gnd FILL
XFILL_3__1696_ vdd gnd FILL
XFILL_3__1765_ vdd gnd FILL
XFILL_1__956_ vdd gnd FILL
X_1216_ _1216_/A _1216_/B _1216_/C _1875_/D vdd gnd OAI21X1
XFILL_1__1332_ vdd gnd FILL
XFILL_1__1401_ vdd gnd FILL
X_1078_ _1138_/A _1140_/C vdd gnd INVX1
X_1147_ _1147_/A _1147_/B _1149_/C vdd gnd NAND2X1
XFILL_1__1263_ vdd gnd FILL
XFILL_1__1194_ vdd gnd FILL
XFILL_2__1510_ vdd gnd FILL
XFILL_2__1441_ vdd gnd FILL
XFILL_2__1372_ vdd gnd FILL
XFILL_4__1239_ vdd gnd FILL
XFILL_0__974_ vdd gnd FILL
XFILL_2__1708_ vdd gnd FILL
XFILL_3__1550_ vdd gnd FILL
XFILL_0__1772_ vdd gnd FILL
XFILL_3__1481_ vdd gnd FILL
X_927_ _927_/A _928_/B vdd gnd INVX2
XFILL_0__1841_ vdd gnd FILL
XFILL_2__1639_ vdd gnd FILL
XFILL_4__952_ vdd gnd FILL
X_1001_ _992_/A _999_/Y _1001_/C _1866_/D vdd gnd OAI21X1
XCLKBUF1_insert10 clk _1904_/CLK vdd gnd CLKBUF1
X_1765_ _1773_/A _1766_/C vdd gnd INVX1
X_1834_ _948_/A Yin[0] _1835_/C vdd gnd NAND2X1
XFILL_0__1206_ vdd gnd FILL
XFILL_0__1137_ vdd gnd FILL
X_1903_ _1903_/D _1903_/CLK _950_/B vdd gnd DFFPOSX1
X_1696_ _1696_/A _1696_/B _1696_/C _1706_/A vdd gnd OAI21X1
XFILL_3__1748_ vdd gnd FILL
XFILL_3__1817_ vdd gnd FILL
XFILL_0__1068_ vdd gnd FILL
XFILL_3__1679_ vdd gnd FILL
XFILL_1__939_ vdd gnd FILL
XFILL_1__1315_ vdd gnd FILL
XFILL_1__1246_ vdd gnd FILL
XFILL_4__1024_ vdd gnd FILL
XFILL_3__970_ vdd gnd FILL
XFILL_1__1177_ vdd gnd FILL
XFILL_2__1355_ vdd gnd FILL
XFILL_2__1424_ vdd gnd FILL
XFILL101250x150 vdd gnd FILL
XFILL_0__957_ vdd gnd FILL
XFILL_2__1286_ vdd gnd FILL
XFILL_3__1602_ vdd gnd FILL
X_1550_ _1574_/B _1574_/A _1634_/C _1564_/A vdd gnd NAND3X1
X_1481_ _1494_/A _1493_/A _1494_/B _1482_/A vdd gnd NAND3X1
XFILL_2_BUFX2_insert17 vdd gnd FILL
XFILL_0__1686_ vdd gnd FILL
XFILL_0__1755_ vdd gnd FILL
XFILL_0__1824_ vdd gnd FILL
XFILL_3__1464_ vdd gnd FILL
XFILL_3__1533_ vdd gnd FILL
XFILL99750x23550 vdd gnd FILL
XFILL_1__1100_ vdd gnd FILL
XFILL_3__1395_ vdd gnd FILL
X_1748_ _1748_/A _1748_/B _1748_/C _1774_/A vdd gnd AOI21X1
X_1817_ _1890_/Q _1824_/B _1818_/C vdd gnd NOR2X1
XFILL_1__1031_ vdd gnd FILL
X_1679_ _1679_/A _1679_/B _1679_/C _1682_/A vdd gnd NAND3X1
XFILL_4__1573_ vdd gnd FILL
XFILL_1__1795_ vdd gnd FILL
XFILL_1_BUFX2_insert3 vdd gnd FILL
XFILL_2__1140_ vdd gnd FILL
XFILL101250x93750 vdd gnd FILL
XFILL_2__1071_ vdd gnd FILL
XFILL_1__1229_ vdd gnd FILL
XFILL_3__953_ vdd gnd FILL
XFILL_0__1540_ vdd gnd FILL
XFILL_0__1471_ vdd gnd FILL
XFILL_2__1407_ vdd gnd FILL
XFILL_2__1338_ vdd gnd FILL
XFILL_2__1269_ vdd gnd FILL
XFILL_3__1180_ vdd gnd FILL
X_1602_ _1602_/A _1647_/A _1602_/C _1649_/B vdd gnd NAND3X1
X_1464_ _1543_/C _1525_/B _1525_/A _1470_/B vdd gnd AOI21X1
X_1533_ _963_/A _1533_/B _965_/A _1533_/D _1597_/B vdd gnd OAI22X1
X_1395_ _1395_/A _1395_/B _1396_/B vdd gnd AND2X2
XFILL_0__1669_ vdd gnd FILL
XFILL_0__1738_ vdd gnd FILL
XFILL_1__1580_ vdd gnd FILL
XFILL_3__1516_ vdd gnd FILL
XFILL_0__1807_ vdd gnd FILL
XFILL_3__1447_ vdd gnd FILL
XFILL_3__1378_ vdd gnd FILL
XFILL_2__971_ vdd gnd FILL
XFILL_1__1014_ vdd gnd FILL
XFILL_1__1916_ vdd gnd FILL
XFILL_1__1778_ vdd gnd FILL
XFILL_1__1847_ vdd gnd FILL
XFILL_2__1123_ vdd gnd FILL
XFILL_2__1054_ vdd gnd FILL
XFILL_3__936_ vdd gnd FILL
XFILL_0__1523_ vdd gnd FILL
XFILL_3__1232_ vdd gnd FILL
XFILL_3__1301_ vdd gnd FILL
X_1180_ _1243_/A _1184_/C vdd gnd INVX1
XFILL_0__1454_ vdd gnd FILL
XFILL_3__1094_ vdd gnd FILL
XFILL_3__1163_ vdd gnd FILL
XFILL_0__1385_ vdd gnd FILL
X_1516_ _1520_/A _1521_/C _1520_/B _1517_/B vdd gnd NAND3X1
XFILL_1__1632_ vdd gnd FILL
X_1447_ _1454_/A _1615_/B _1542_/B vdd gnd NOR2X1
XFILL_1__1701_ vdd gnd FILL
X_1378_ _1397_/B _1397_/A _1397_/C _1483_/A vdd gnd NAND3X1
XFILL_1__1563_ vdd gnd FILL
XFILL_1__1494_ vdd gnd FILL
XFILL_4__1272_ vdd gnd FILL
XFILL_2__954_ vdd gnd FILL
XFILL_2__1672_ vdd gnd FILL
XFILL_2__1741_ vdd gnd FILL
XFILL_2__1810_ vdd gnd FILL
X_960_ Xin[1] _965_/B _961_/C vdd gnd NAND2X1
XFILL_0__1170_ vdd gnd FILL
XFILL_2__1106_ vdd gnd FILL
XFILL_3__1781_ vdd gnd FILL
XFILL_2__1037_ vdd gnd FILL
X_1232_ _953_/B Cin[4] _1313_/A vdd gnd NAND2X1
XFILL_1__972_ vdd gnd FILL
X_1301_ _1301_/A _1301_/B _1301_/C _1379_/C vdd gnd AOI21X1
XFILL_0__1506_ vdd gnd FILL
XFILL_0__1437_ vdd gnd FILL
XBUFX2_insert4 _1910_/Q _998_/A vdd gnd BUFX2
X_1094_ _1213_/B _1095_/C _1095_/B _1097_/A vdd gnd OAI21X1
XFILL_3__1215_ vdd gnd FILL
X_1163_ _953_/B Cin[3] _1169_/A vdd gnd AND2X2
XFILL_0__1368_ vdd gnd FILL
XFILL_3__1146_ vdd gnd FILL
XFILL_3__1077_ vdd gnd FILL
XFILL_0__1299_ vdd gnd FILL
XFILL_1__1546_ vdd gnd FILL
XFILL_1__1615_ vdd gnd FILL
XFILL_1__1477_ vdd gnd FILL
XFILL_2__937_ vdd gnd FILL
XFILL_0__990_ vdd gnd FILL
XFILL_2__1724_ vdd gnd FILL
XFILL_2__1655_ vdd gnd FILL
X_943_ _943_/A _943_/B _943_/C _945_/B vdd gnd OAI21X1
XFILL_2__1586_ vdd gnd FILL
X_1781_ _1782_/B _1793_/B _1793_/C vdd gnd OR2X2
XFILL_3__1000_ vdd gnd FILL
XFILL_0__1222_ vdd gnd FILL
X_1850_ _959_/Y _1903_/CLK _946_/A vdd gnd DFFPOSX1
XFILL_0__1153_ vdd gnd FILL
XFILL_0__1084_ vdd gnd FILL
XFILL_3__1764_ vdd gnd FILL
XFILL_3__1833_ vdd gnd FILL
XFILL_3__1695_ vdd gnd FILL
XFILL_1__955_ vdd gnd FILL
XFILL_1__1400_ vdd gnd FILL
X_1146_ _1212_/B _1212_/A _1147_/B vdd gnd NAND2X1
X_1215_ _1215_/A _1217_/B _1216_/B vdd gnd XOR2X1
XFILL_1__1331_ vdd gnd FILL
XFILL_1__1262_ vdd gnd FILL
XFILL_3__1129_ vdd gnd FILL
X_1077_ _1082_/A _1079_/B _1079_/A _1138_/A vdd gnd NAND3X1
XFILL_1__1193_ vdd gnd FILL
XFILL_2__1440_ vdd gnd FILL
XFILL_1__1529_ vdd gnd FILL
XFILL_4__1307_ vdd gnd FILL
XFILL_2__1371_ vdd gnd FILL
XFILL_0__973_ vdd gnd FILL
XFILL_0__1840_ vdd gnd FILL
XFILL_2__1638_ vdd gnd FILL
XFILL_0__1771_ vdd gnd FILL
XFILL_2__1707_ vdd gnd FILL
XFILL_3__1480_ vdd gnd FILL
X_1000_ _992_/A _1882_/Q _1001_/C vdd gnd NAND2X1
X_926_ _943_/A _999_/A _926_/C _930_/B vdd gnd OAI21X1
XFILL_2__1569_ vdd gnd FILL
XCLKBUF1_insert11 clk _1903_/CLK vdd gnd CLKBUF1
X_1902_ _1902_/D _1910_/CLK _947_/B vdd gnd DFFPOSX1
X_1764_ _1774_/B _1774_/A _1773_/A vdd gnd XOR2X1
X_1833_ _1833_/A _1833_/B _1833_/C _1897_/D vdd gnd OAI21X1
XFILL_0__1205_ vdd gnd FILL
XFILL_0__1136_ vdd gnd FILL
XFILL_0__1067_ vdd gnd FILL
X_1695_ _1695_/A _1695_/B _1695_/C _1696_/B vdd gnd AOI21X1
XFILL_3__1747_ vdd gnd FILL
XFILL_3__1816_ vdd gnd FILL
XFILL_3__1678_ vdd gnd FILL
XFILL_1__938_ vdd gnd FILL
X_1129_ _1161_/B _1196_/C _1161_/A _1142_/B vdd gnd NAND3X1
XFILL_1__1314_ vdd gnd FILL
XFILL_1__1176_ vdd gnd FILL
XFILL_1__1245_ vdd gnd FILL
XFILL_4__1787_ vdd gnd FILL
XFILL_2__1423_ vdd gnd FILL
XFILL_2__1354_ vdd gnd FILL
XFILL_2__1285_ vdd gnd FILL
XFILL_0__956_ vdd gnd FILL
XFILL_3__1601_ vdd gnd FILL
XFILL_3__1532_ vdd gnd FILL
X_1480_ _1480_/A _1480_/B _1480_/C _1494_/B vdd gnd OAI21X1
XFILL_0__1823_ vdd gnd FILL
XFILL_2_BUFX2_insert18 vdd gnd FILL
XFILL_0__1685_ vdd gnd FILL
XFILL_3__1463_ vdd gnd FILL
XFILL_0__1754_ vdd gnd FILL
XFILL_3__1394_ vdd gnd FILL
XFILL_4__934_ vdd gnd FILL
XFILL_1__1030_ vdd gnd FILL
X_1678_ _1678_/A _1678_/B _1681_/A _1688_/A vdd gnd OAI21X1
XFILL_4__1710_ vdd gnd FILL
X_1747_ _1747_/A _1747_/B _1767_/B vdd gnd AND2X2
XFILL_4__1641_ vdd gnd FILL
X_1816_ _1816_/A _945_/A _1824_/B vdd gnd NOR2X1
XFILL_0__1119_ vdd gnd FILL
XFILL_1__1794_ vdd gnd FILL
XFILL_1_BUFX2_insert4 vdd gnd FILL
XFILL_4__1006_ vdd gnd FILL
XFILL_1__1159_ vdd gnd FILL
XFILL_2__1070_ vdd gnd FILL
XFILL_1__1228_ vdd gnd FILL
XFILL_3__952_ vdd gnd FILL
XFILL_0__1470_ vdd gnd FILL
XFILL_2__1406_ vdd gnd FILL
XFILL_2__1337_ vdd gnd FILL
XFILL_2__1268_ vdd gnd FILL
X_1601_ _1601_/A _1601_/B _1601_/C _1602_/C vdd gnd OAI21X1
X_1532_ _1611_/A _1596_/B _1592_/C vdd gnd NAND2X1
XFILL_0__939_ vdd gnd FILL
XFILL_2__1199_ vdd gnd FILL
XFILL_3__1515_ vdd gnd FILL
X_1463_ _1524_/A _1524_/B _1524_/C _1525_/B vdd gnd NAND3X1
XFILL_0__1806_ vdd gnd FILL
X_1394_ _1394_/A _1396_/A vdd gnd INVX1
XFILL_0__1668_ vdd gnd FILL
XFILL_0__1737_ vdd gnd FILL
XFILL_0__1599_ vdd gnd FILL
XFILL_3__1446_ vdd gnd FILL
XFILL_2__970_ vdd gnd FILL
XFILL_3__1377_ vdd gnd FILL
XFILL_1__1013_ vdd gnd FILL
XFILL_1__1915_ vdd gnd FILL
XFILL_4__1555_ vdd gnd FILL
XFILL_1__1777_ vdd gnd FILL
XFILL_4__1486_ vdd gnd FILL
XFILL_1__1846_ vdd gnd FILL
XFILL_2__1122_ vdd gnd FILL
XFILL_2__1053_ vdd gnd FILL
XFILL_3__935_ vdd gnd FILL
XFILL_0__1522_ vdd gnd FILL
XFILL_0__1453_ vdd gnd FILL
XFILL_3__1231_ vdd gnd FILL
XFILL_3__1300_ vdd gnd FILL
XFILL_3__1162_ vdd gnd FILL
XFILL_3__1093_ vdd gnd FILL
XFILL_0__1384_ vdd gnd FILL
X_1515_ _1515_/A _1611_/A _1515_/C _1515_/D _1521_/C vdd gnd AOI22X1
XFILL_1__1700_ vdd gnd FILL
XFILL_1__1631_ vdd gnd FILL
X_1446_ _1605_/B _1615_/B vdd gnd INVX1
XFILL_1__1562_ vdd gnd FILL
XFILL_4__1340_ vdd gnd FILL
X_1377_ _1398_/A _1484_/A vdd gnd INVX1
XFILL_1__1493_ vdd gnd FILL
XFILL_3__1429_ vdd gnd FILL
XFILL_2__953_ vdd gnd FILL
XFILL101250x19650 vdd gnd FILL
XFILL_2__1740_ vdd gnd FILL
XFILL_2__1671_ vdd gnd FILL
XFILL_1__1829_ vdd gnd FILL
XFILL_2__1105_ vdd gnd FILL
XFILL_2__1036_ vdd gnd FILL
XFILL_3__1780_ vdd gnd FILL
XFILL_1__971_ vdd gnd FILL
X_1231_ _1231_/A _1231_/B _1231_/C _1274_/C vdd gnd AOI21X1
X_1300_ _1372_/C _1301_/C vdd gnd INVX1